@<TRIPOS>MOLECULE
*****
 31 34 0 0 0
SMALL
GASTEIGER

@<TRIPOS>ATOM
      1 N         137.4159  140.6240  161.6452 N.pl3   1  UNL1       -0.3132
      2 H         136.4433  140.5205  161.5327 H       1  UNL1        0.1485
      3 C         139.1806  139.4261  164.9920 C.ar    1  UNL1        0.0040
      4 C         139.6258  138.0483  164.6001 C.ar    1  UNL1        0.0208
      5 C         139.3344  137.5291  163.2234 C.ar    1  UNL1        0.1003
      6 N         138.5977  138.3877  162.2384 N.ar    1  UNL1       -0.2294
      7 C         138.1525  139.7654  162.6302 C.ar    1  UNL1        0.1288
      8 C         138.4439  140.2846  164.0070 C.ar    1  UNL1        0.0341
      9 C         137.5499  138.4831  167.3268 C.3     1  UNL1        0.0310
     10 C         138.6566  139.4737  167.5362 C.ar    1  UNL1       -0.0212
     11 C         138.9480  139.9929  168.9130 C.ar    1  UNL1        0.0060
     12 C         140.0547  140.9836  169.1223 C.ar    1  UNL1        0.0681
     13 C         140.8700  141.4551  167.9548 C.ar    1  UNL1        0.0103
     14 C         140.5786  140.9359  166.5780 C.ar    1  UNL1        0.0004
     15 C         139.4719  139.9453  166.3688 C.ar    1  UNL1       -0.0038
     16 C         140.3461  141.5028  170.4991 C.1     1  UNL1        0.1004
     17 N         140.6376  142.0221  171.8759 N.1     1  UNL1       -0.1908
     18 C         138.1611  141.6403  160.8316 C.3     1  UNL1        0.1368
     19 C         138.6530  142.9024  161.4759 C.ar    1  UNL1        0.1032
     20 N         137.7958  144.0026  162.0280 N.ar    1  UNL1       -0.1492
     21 N         138.7016  145.0660  162.5745 N.ar    1  UNL1       -0.1306
     22 C         140.1186  144.6230  162.3602 C.ar    1  UNL1        0.1641
     23 N         141.4323  145.2645  162.6956 N.ar    1  UNL1       -0.3262
     24 C         142.7160  144.5689  162.3520 C.ar    1  UNL1        0.1037
     25 N         144.0298  145.2104  162.6874 N.pl3   1  UNL1       -0.3441
     26 C         142.6860  143.2317  161.6730 C.ar    1  UNL1        0.0321
     27 C         141.3723  142.5902  161.3376 C.ar    1  UNL1        0.0071
     28 C         140.0886  143.2858  161.6812 C.ar    1  UNL1        0.0527
     29 H         141.4520  146.1422  163.1413 H       1  UNL1        0.1686
     30 H         144.0496  146.0880  163.1331 H       1  UNL1        0.1437
     31 H         144.8724  144.7538  162.4619 H       1  UNL1        0.1437
@<TRIPOS>BOND
     1     9    10    1
     2    10    11   ar
     3    11    12   ar
     4    12    16    1
     5    16    17    3
     6    12    13   ar
     7    13    14   ar
     8    14    15   ar
     9    15     3    1
    10     3     4   ar
    11     4     5   ar
    12     5     6   ar
    13     6     7   ar
    14     7     1    1
    15     1    18    1
    16    18    19    1
    17    19    20   ar
    18    20    21   ar
    19    21    22   ar
    20    22    23   ar
    21    23    24   ar
    22    24    25    1
    23    24    26   ar
    24    26    27   ar
    25    27    28   ar
    26     7     8   ar
    27    15    10   ar
    28     8     3   ar
    29    28    19   ar
    30    28    22    1
    31     1     2    1
    32    23    29    1
    33    25    30    1
    34    25    31    1
@<TRIPOS>MOLECULE
*****
 31 34 0 0 0
SMALL
GASTEIGER

@<TRIPOS>ATOM
      1 N         137.3997  140.5676  161.8000 N.pl3   1  UNL1       -0.3132
      2 H         136.4254  140.4681  161.6993 H       1  UNL1        0.1485
      3 C         139.1746  139.4664  165.1746 C.ar    1  UNL1        0.0040
      4 C         139.6150  138.0765  164.8226 C.ar    1  UNL1        0.0208
      5 C         139.3171  137.5169  163.4632 C.ar    1  UNL1        0.1003
      6 N         138.5786  138.3472  162.4556 N.ar    1  UNL1       -0.2294
      7 C         138.1382  139.7372  162.8076 C.ar    1  UNL1        0.1288
      8 C         138.4361  140.2968  164.1670 C.ar    1  UNL1        0.0341
      9 C         141.2343  141.6246  165.4896 C.3     1  UNL1        0.0310
     10 C         140.5025  141.1052  166.6915 C.ar    1  UNL1       -0.0212
     11 C         140.8004  141.6648  168.0509 C.ar    1  UNL1        0.0060
     12 C         140.0684  141.1453  169.2528 C.ar    1  UNL1        0.0681
     13 C         139.0385  140.0662  169.0952 C.ar    1  UNL1        0.0103
     14 C         138.7406  139.5066  167.7358 C.ar    1  UNL1        0.0004
     15 C         139.4725  140.0261  166.5340 C.ar    1  UNL1       -0.0038
     16 C         140.3664  141.7049  170.6122 C.1     1  UNL1        0.1004
     17 N         140.6643  142.2645  171.9717 N.1     1  UNL1       -0.1908
     18 C         138.1457  141.5496  160.9460 C.3     1  UNL1        0.1368
     19 C         138.6293  142.8411  161.5360 C.ar    1  UNL1        0.1032
     20 N         137.7650  143.9652  162.0253 N.ar    1  UNL1       -0.1492
     21 N         138.6637  145.0540  162.5321 N.ar    1  UNL1       -0.1306
     22 C         140.0834  144.6029  162.3560 C.ar    1  UNL1        0.1641
     23 N         141.3927  145.2607  162.6766 N.ar    1  UNL1       -0.3262
     24 C         142.6807  144.5509  162.3817 C.ar    1  UNL1        0.1037
     25 N         143.9901  145.2088  162.7023 N.pl3   1  UNL1       -0.3441
     26 C         142.6594  143.1832  161.7661 C.ar    1  UNL1        0.0321
     27 C         141.3501  142.5254  161.4454 C.ar    1  UNL1        0.0071
     28 C         140.0621  143.2352  161.7404 C.ar    1  UNL1        0.0527
     29 H         141.4066  146.1584  163.0807 H       1  UNL1        0.1686
     30 H         144.0041  146.1065  163.1064 H       1  UNL1        0.1437
     31 H         144.8355  144.7429  162.5088 H       1  UNL1        0.1437
@<TRIPOS>BOND
     1     9    10    1
     2    10    11   ar
     3    11    12   ar
     4    12    16    1
     5    16    17    3
     6    12    13   ar
     7    13    14   ar
     8    14    15   ar
     9    15     3    1
    10     3     4   ar
    11     4     5   ar
    12     5     6   ar
    13     6     7   ar
    14     7     1    1
    15     1    18    1
    16    18    19    1
    17    19    20   ar
    18    20    21   ar
    19    21    22   ar
    20    22    23   ar
    21    23    24   ar
    22    24    25    1
    23    24    26   ar
    24    26    27   ar
    25    27    28   ar
    26     7     8   ar
    27    15    10   ar
    28     8     3   ar
    29    28    19   ar
    30    28    22    1
    31     1     2    1
    32    23    29    1
    33    25    30    1
    34    25    31    1
@<TRIPOS>MOLECULE
*****
 31 34 0 0 0
SMALL
GASTEIGER

@<TRIPOS>ATOM
      1 N         142.5770  137.5472  162.1384 N.pl3   1  UNL1       -0.3132
      2 H         142.6028  136.6900  161.6549 H       1  UNL1        0.1485
      3 C         140.1167  139.4200  164.6264 C.ar    1  UNL1        0.0040
      4 C         138.7949  138.8578  164.1945 C.ar    1  UNL1        0.0208
      5 C         138.7337  137.8587  163.0773 C.ar    1  UNL1        0.1003
      6 N         139.9944  137.4218  162.3919 N.ar    1  UNL1       -0.2294
      7 C         141.3163  137.9841  162.8238 C.ar    1  UNL1        0.1288
      8 C         141.3775  138.9831  163.9410 C.ar    1  UNL1        0.0341
      9 C         140.1720  142.3558  164.0118 C.3     1  UNL1        0.0310
     10 C         140.2055  141.8870  165.4363 C.ar    1  UNL1       -0.0212
     11 C         140.2667  142.8860  166.5535 C.ar    1  UNL1        0.0060
     12 C         140.3003  142.4171  167.9780 C.ar    1  UNL1        0.0681
     13 C         140.2726  140.9492  168.2852 C.ar    1  UNL1        0.0103
     14 C         140.2114  139.9501  167.1680 C.ar    1  UNL1        0.0004
     15 C         140.1779  140.4190  165.7436 C.ar    1  UNL1       -0.0038
     16 C         140.3614  143.4161  169.0952 C.1     1  UNL1        0.1004
     17 N         140.4226  144.4153  170.2124 N.1     1  UNL1       -0.1908
     18 C         143.7985  138.4164  162.1898 C.3     1  UNL1        0.1368
     19 C         143.8364  139.7029  161.4194 C.ar    1  UNL1        0.1032
     20 N         143.8730  139.8354  159.9257 N.ar    1  UNL1       -0.1492
     21 N         143.9036  141.2972  159.5907 N.ar    1  UNL1       -0.1306
     22 C         143.8859  142.0681  160.8773 C.ar    1  UNL1        0.1641
     23 N         143.9022  143.5400  161.1658 N.ar    1  UNL1       -0.3262
     24 C         143.8770  144.0266  162.5844 C.ar    1  UNL1        0.1037
     25 N         143.8934  145.4985  162.8729 N.pl3   1  UNL1       -0.3441
     26 C         143.8355  143.0412  163.7146 C.ar    1  UNL1        0.0321
     27 C         143.8192  141.5694  163.4262 C.ar    1  UNL1        0.0071
     28 C         143.8444  141.0828  162.0075 C.ar    1  UNL1        0.0527
     29 H         143.9295  144.1867  160.4240 H       1  UNL1        0.1686
     30 H         143.9206  146.1453  162.1311 H       1  UNL1        0.1437
     31 H         143.8768  145.8179  163.8040 H       1  UNL1        0.1437
@<TRIPOS>BOND
     1     9    10    1
     2    10    11   ar
     3    11    12   ar
     4    12    16    1
     5    16    17    3
     6    12    13   ar
     7    13    14   ar
     8    14    15   ar
     9    15     3    1
    10     3     4   ar
    11     4     5   ar
    12     5     6   ar
    13     6     7   ar
    14     7     1    1
    15     1    18    1
    16    18    19    1
    17    19    20   ar
    18    20    21   ar
    19    21    22   ar
    20    22    23   ar
    21    23    24   ar
    22    24    25    1
    23    24    26   ar
    24    26    27   ar
    25    27    28   ar
    26     7     8   ar
    27    15    10   ar
    28     8     3   ar
    29    28    19   ar
    30    28    22    1
    31     1     2    1
    32    23    29    1
    33    25    30    1
    34    25    31    1
@<TRIPOS>MOLECULE
*****
 31 34 0 0 0
SMALL
GASTEIGER

@<TRIPOS>ATOM
      1 N         138.3499  137.2606  162.5052 N.pl3   1  UNL1       -0.3132
      2 H         138.0983  136.3207  162.6557 H       1  UNL1        0.1485
      3 C         140.7399  139.3792  164.8610 C.ar    1  UNL1        0.0040
      4 C         142.0863  138.9184  164.3868 C.ar    1  UNL1        0.0208
      5 C         142.1873  137.9050  163.2855 C.ar    1  UNL1        0.1003
      6 N         140.9418  137.3524  162.6583 N.ar    1  UNL1       -0.2294
      7 C         139.5954  137.8132  163.1324 C.ar    1  UNL1        0.1288
      8 C         139.4944  138.8266  164.2337 C.ar    1  UNL1        0.0341
      9 C         140.9402  142.3052  164.2299 C.3     1  UNL1        0.0310
     10 C         140.7391  141.8556  165.6467 C.ar    1  UNL1       -0.0212
     11 C         140.6381  142.8690  166.7480 C.ar    1  UNL1        0.0060
     12 C         140.4370  142.4193  168.1649 C.ar    1  UNL1        0.0681
     13 C         140.3369  140.9563  168.4804 C.ar    1  UNL1        0.0103
     14 C         140.4378  139.9429  167.3791 C.ar    1  UNL1        0.0004
     15 C         140.6389  140.3926  165.9623 C.ar    1  UNL1       -0.0038
     16 C         140.3360  143.4327  169.2662 C.1     1  UNL1        0.1004
     17 N         140.2351  144.4461  170.3675 N.1     1  UNL1       -0.1908
     18 C         137.4878  138.1399  161.6487 C.3     1  UNL1        0.1368
     19 C         138.0671  139.3699  161.0149 C.ar    1  UNL1        0.1032
     20 N         138.7944  139.4272  159.7043 N.ar    1  UNL1       -0.1492
     21 N         139.1975  140.8512  159.4598 N.ar    1  UNL1       -0.1306
     22 C         138.7194  141.6739  160.6193 C.ar    1  UNL1        0.1641
     23 N         138.8299  143.1384  160.9242 N.ar    1  UNL1       -0.3262
     24 C         138.2417  143.6874  162.1901 C.ar    1  UNL1        0.1037
     25 N         138.3522  145.1520  162.4950 N.pl3   1  UNL1       -0.3441
     26 C         137.5430  142.7719  163.1512 C.ar    1  UNL1        0.0321
     27 C         137.4325  141.3074  162.8463 C.ar    1  UNL1        0.0071
     28 C         138.0207  140.7584  161.5804 C.ar    1  UNL1        0.0527
     29 H         139.2885  143.7393  160.2934 H       1  UNL1        0.1686
     30 H         138.8108  145.7529  161.8642 H       1  UNL1        0.1437
     31 H         137.9662  145.5123  163.3259 H       1  UNL1        0.1437
@<TRIPOS>BOND
     1     9    10    1
     2    10    11   ar
     3    11    12   ar
     4    12    16    1
     5    16    17    3
     6    12    13   ar
     7    13    14   ar
     8    14    15   ar
     9    15     3    1
    10     3     4   ar
    11     4     5   ar
    12     5     6   ar
    13     6     7   ar
    14     7     1    1
    15     1    18    1
    16    18    19    1
    17    19    20   ar
    18    20    21   ar
    19    21    22   ar
    20    22    23   ar
    21    23    24   ar
    22    24    25    1
    23    24    26   ar
    24    26    27   ar
    25    27    28   ar
    26     7     8   ar
    27    15    10   ar
    28     8     3   ar
    29    28    19   ar
    30    28    22    1
    31     1     2    1
    32    23    29    1
    33    25    30    1
    34    25    31    1
@<TRIPOS>MOLECULE
*****
 31 34 0 0 0
SMALL
GASTEIGER

@<TRIPOS>ATOM
      1 N         141.9506  140.9275  161.1437 N.pl3   1  UNL1       -0.3132
      2 H         142.5609  140.6713  160.4149 H       1  UNL1        0.1485
      3 C         142.4402  142.8632  164.5734 C.ar    1  UNL1        0.0040
      4 C         143.1851  144.0794  164.1086 C.ar    1  UNL1        0.0208
      5 C         143.5185  144.2449  162.6556 C.ar    1  UNL1        0.1003
      6 N         143.1070  143.1942  161.6672 N.ar    1  UNL1       -0.2294
      7 C         142.3621  141.9781  162.1320 C.ar    1  UNL1        0.1288
      8 C         142.0287  141.8126  163.5851 C.ar    1  UNL1        0.0341
      9 C         139.6612  143.4337  165.5490 C.3     1  UNL1        0.0310
     10 C         140.7172  142.9830  166.5143 C.ar    1  UNL1       -0.0212
     11 C         140.3837  142.8175  167.9673 C.ar    1  UNL1        0.0060
     12 C         141.4398  142.3667  168.9326 C.ar    1  UNL1        0.0681
     13 C         142.8293  142.0814  168.4447 C.ar    1  UNL1        0.0103
     14 C         143.1627  142.2470  166.9917 C.ar    1  UNL1        0.0004
     15 C         142.1067  142.6977  166.0265 C.ar    1  UNL1       -0.0038
     16 C         141.1064  142.2012  170.3857 C.1     1  UNL1        0.1004
     17 N         140.7729  142.0356  171.8388 N.1     1  UNL1       -0.1908
     18 C         140.6092  140.2672  161.2658 C.3     1  UNL1        0.1368
     19 C         140.4289  139.1008  162.1916 C.ar    1  UNL1        0.1032
     20 N         141.0136  137.7316  162.0089 N.ar    1  UNL1       -0.1492
     21 N         140.5783  136.8835  163.1670 N.ar    1  UNL1       -0.1306
     22 C         139.7246  137.7285  164.0654 C.ar    1  UNL1        0.1641
     23 N         139.0194  137.4272  165.3545 N.ar    1  UNL1       -0.3262
     24 C         138.2219  138.4963  166.0408 C.ar    1  UNL1        0.1037
     25 N         137.5166  138.1950  167.3299 N.pl3   1  UNL1       -0.3441
     26 C         138.1296  139.8667  165.4379 C.ar    1  UNL1        0.0321
     27 C         138.8348  140.1680  164.1488 C.ar    1  UNL1        0.0071
     28 C         139.6323  139.0989  163.4625 C.ar    1  UNL1        0.0527
     29 H         139.0800  136.5278  165.7502 H       1  UNL1        0.1686
     30 H         137.5772  137.2956  167.7257 H       1  UNL1        0.1437
     31 H         136.9932  138.8967  167.7803 H       1  UNL1        0.1437
@<TRIPOS>BOND
     1     9    10    1
     2    10    11   ar
     3    11    12   ar
     4    12    16    1
     5    16    17    3
     6    12    13   ar
     7    13    14   ar
     8    14    15   ar
     9    15     3    1
    10     3     4   ar
    11     4     5   ar
    12     5     6   ar
    13     6     7   ar
    14     7     1    1
    15     1    18    1
    16    18    19    1
    17    19    20   ar
    18    20    21   ar
    19    21    22   ar
    20    22    23   ar
    21    23    24   ar
    22    24    25    1
    23    24    26   ar
    24    26    27   ar
    25    27    28   ar
    26     7     8   ar
    27    15    10   ar
    28     8     3   ar
    29    28    19   ar
    30    28    22    1
    31     1     2    1
    32    23    29    1
    33    25    30    1
    34    25    31    1
@<TRIPOS>MOLECULE
*****
 31 34 0 0 0
SMALL
GASTEIGER

@<TRIPOS>ATOM
      1 N         137.3275  139.6607  161.7554 N.pl3   1  UNL1       -0.3132
      2 H         136.3993  139.7835  162.0596 H       1  UNL1        0.1485
      3 C         139.5706  139.1472  164.9888 C.ar    1  UNL1        0.0040
      4 C         140.4131  137.9801  164.5669 C.ar    1  UNL1        0.0208
      5 C         140.2270  137.3732  163.2078 C.ar    1  UNL1        0.1003
      6 N         139.1985  137.9334  162.2706 N.ar    1  UNL1       -0.2294
      7 C         138.3561  139.1005  162.6926 C.ar    1  UNL1        0.1288
      8 C         138.5421  139.7075  164.0516 C.ar    1  UNL1        0.0341
      9 C         137.6562  138.4859  167.2017 C.3     1  UNL1        0.0310
     10 C         138.7994  139.4235  167.4543 C.ar    1  UNL1       -0.0212
     11 C         138.9855  140.0304  168.8133 C.ar    1  UNL1        0.0060
     12 C         140.1288  140.9681  169.0659 C.ar    1  UNL1        0.0681
     13 C         141.0861  141.2987  167.9594 C.ar    1  UNL1        0.0103
     14 C         140.9000  140.6918  166.6003 C.ar    1  UNL1        0.0004
     15 C         139.7567  139.7542  166.3478 C.ar    1  UNL1       -0.0038
     16 C         140.3149  141.5750  170.4249 C.1     1  UNL1        0.1004
     17 N         140.5010  142.1819  171.7840 N.1     1  UNL1       -0.1908
     18 C         137.7133  140.0339  160.3546 C.3     1  UNL1        0.1368
     19 C         138.8011  141.0395  160.1189 C.ar    1  UNL1        0.1032
     20 N         139.8955  140.9317  159.0988 N.ar    1  UNL1       -0.1492
     21 N         140.7562  142.1550  159.2114 N.ar    1  UNL1       -0.1306
     22 C         140.1939  143.0188  160.3012 C.ar    1  UNL1        0.1641
     23 N         140.6259  144.3440  160.8553 N.ar    1  UNL1       -0.3262
     24 C         139.8497  144.9798  161.9702 C.ar    1  UNL1        0.1037
     25 N         140.2818  146.3051  162.5244 N.pl3   1  UNL1       -0.3441
     26 C         138.6414  144.2903  162.5311 C.ar    1  UNL1        0.0321
     27 C         138.2093  142.9651  161.9771 C.ar    1  UNL1        0.0071
     28 C         138.9855  142.3293  160.8621 C.ar    1  UNL1        0.0527
     29 H         141.4190  144.7965  160.4872 H       1  UNL1        0.1686
     30 H         141.0748  146.7576  162.1563 H       1  UNL1        0.1437
     31 H         139.7723  146.7223  163.2562 H       1  UNL1        0.1437
@<TRIPOS>BOND
     1     9    10    1
     2    10    11   ar
     3    11    12   ar
     4    12    16    1
     5    16    17    3
     6    12    13   ar
     7    13    14   ar
     8    14    15   ar
     9    15     3    1
    10     3     4   ar
    11     4     5   ar
    12     5     6   ar
    13     6     7   ar
    14     7     1    1
    15     1    18    1
    16    18    19    1
    17    19    20   ar
    18    20    21   ar
    19    21    22   ar
    20    22    23   ar
    21    23    24   ar
    22    24    25    1
    23    24    26   ar
    24    26    27   ar
    25    27    28   ar
    26     7     8   ar
    27    15    10   ar
    28     8     3   ar
    29    28    19   ar
    30    28    22    1
    31     1     2    1
    32    23    29    1
    33    25    30    1
    34    25    31    1
@<TRIPOS>MOLECULE
*****
 31 34 0 0 0
SMALL
GASTEIGER

@<TRIPOS>ATOM
      1 N         142.2178  145.3099  162.7185 N.pl3   1  UNL1       -0.3132
      2 H         142.4900  146.2480  162.8413 H       1  UNL1        0.1485
      3 C         142.3556  142.5813  165.5969 C.ar    1  UNL1        0.0040
      4 C         143.7827  142.1313  165.4928 C.ar    1  UNL1        0.0208
      5 C         144.6881  142.7408  164.4639 C.ar    1  UNL1        0.1003
      6 N         144.1665  143.8003  163.5391 N.ar    1  UNL1       -0.2294
      7 C         142.7394  144.2503  163.6433 C.ar    1  UNL1        0.1288
      8 C         141.8340  143.6408  164.6721 C.ar    1  UNL1        0.0341
      9 C         140.6663  140.2052  164.8894 C.3     1  UNL1        0.0310
     10 C         140.6055  140.7837  166.2720 C.ar    1  UNL1       -0.0212
     11 C         139.7000  140.1742  167.3009 C.ar    1  UNL1        0.0060
     12 C         139.6392  140.7527  168.6836 C.ar    1  UNL1        0.0681
     13 C         140.4838  141.9408  169.0373 C.ar    1  UNL1        0.0103
     14 C         141.3893  142.5503  168.0084 C.ar    1  UNL1        0.0004
     15 C         141.4501  141.9717  166.6258 C.ar    1  UNL1       -0.0038
     16 C         138.7337  140.1432  169.7124 C.1     1  UNL1        0.1004
     17 N         137.8281  139.5337  170.7414 N.1     1  UNL1       -0.1908
     18 C         141.2814  144.9401  161.6064 C.3     1  UNL1        0.1368
     19 C         139.9265  144.3794  161.9222 C.ar    1  UNL1        0.1032
     20 N         138.7415  145.1589  162.4102 N.ar    1  UNL1       -0.1492
     21 N         137.6013  144.2019  162.5949 N.ar    1  UNL1       -0.1306
     22 C         138.0816  142.8309  162.2210 C.ar    1  UNL1        0.1641
     23 N         137.3961  141.4968  162.2055 N.ar    1  UNL1       -0.3262
     24 C         138.1476  140.2725  161.7741 C.ar    1  UNL1        0.1037
     25 N         137.4621  138.9383  161.7585 N.pl3   1  UNL1       -0.3441
     26 C         139.5846  140.3822  161.3583 C.ar    1  UNL1        0.0321
     27 C         140.2702  141.7162  161.3738 C.ar    1  UNL1        0.0071
     28 C         139.5187  142.9406  161.8052 C.ar    1  UNL1        0.0527
     29 H         136.4529  141.4248  162.4784 H       1  UNL1        0.1686
     30 H         136.5189  138.8663  162.0314 H       1  UNL1        0.1437
     31 H         137.9553  138.1347  161.4754 H       1  UNL1        0.1437
@<TRIPOS>BOND
     1     9    10    1
     2    10    11   ar
     3    11    12   ar
     4    12    16    1
     5    16    17    3
     6    12    13   ar
     7    13    14   ar
     8    14    15   ar
     9    15     3    1
    10     3     4   ar
    11     4     5   ar
    12     5     6   ar
    13     6     7   ar
    14     7     1    1
    15     1    18    1
    16    18    19    1
    17    19    20   ar
    18    20    21   ar
    19    21    22   ar
    20    22    23   ar
    21    23    24   ar
    22    24    25    1
    23    24    26   ar
    24    26    27   ar
    25    27    28   ar
    26     7     8   ar
    27    15    10   ar
    28     8     3   ar
    29    28    19   ar
    30    28    22    1
    31     1     2    1
    32    23    29    1
    33    25    30    1
    34    25    31    1
@<TRIPOS>MOLECULE
*****
 31 34 0 0 0
SMALL
GASTEIGER

@<TRIPOS>ATOM
      1 N         138.6874  145.0690  162.4711 N.pl3   1  UNL1       -0.3132
      2 H         137.8635  145.6062  162.4287 H       1  UNL1        0.1485
      3 C         139.3042  141.5587  164.2168 C.ar    1  UNL1        0.0040
      4 C         138.4579  140.6638  163.3607 C.ar    1  UNL1        0.0208
      5 C         137.6882  141.2373  162.2080 C.ar    1  UNL1        0.1003
      6 N         137.7647  142.7057  161.9115 N.ar    1  UNL1       -0.2294
      7 C         138.6109  143.6005  162.7676 C.ar    1  UNL1        0.1288
      8 C         139.3807  143.0271  163.9203 C.ar    1  UNL1        0.0341
      9 C         142.0228  140.3739  163.7638 C.3     1  UNL1        0.0310
     10 C         141.4332  140.3928  165.1430 C.ar    1  UNL1       -0.0212
     11 C         142.2030  139.8193  166.2956 C.ar    1  UNL1        0.0060
     12 C         141.6133  139.8382  167.6748 C.ar    1  UNL1        0.0681
     13 C         140.2540  140.4306  167.9013 C.ar    1  UNL1        0.0103
     14 C         139.4842  141.0041  166.7486 C.ar    1  UNL1        0.0004
     15 C         140.0739  140.9852  165.3695 C.ar    1  UNL1       -0.0038
     16 C         142.3830  139.2648  168.8275 C.1     1  UNL1        0.1004
     17 N         143.1528  138.6913  169.9802 N.1     1  UNL1       -0.1908
     18 C         140.0193  145.7189  162.2391 C.3     1  UNL1        0.1368
     19 C         141.1182  144.9559  161.5606 C.ar    1  UNL1        0.1032
     20 N         141.2504  144.7258  160.0843 N.ar    1  UNL1       -0.1492
     21 N         142.4916  143.9167  159.8507 N.ar    1  UNL1       -0.1306
     22 C         143.1266  143.6467  161.1826 C.ar    1  UNL1        0.1641
     23 N         144.3680  142.8991  161.5696 N.ar    1  UNL1       -0.3262
     24 C         144.7606  142.7937  163.0134 C.ar    1  UNL1        0.1037
     25 N         146.0021  142.0460  163.4005 N.pl3   1  UNL1       -0.3441
     26 C         143.9118  143.4360  164.0702 C.ar    1  UNL1        0.0321
     27 C         142.6703  144.1836  163.6833 C.ar    1  UNL1        0.0071
     28 C         142.2777  144.2890  162.2394 C.ar    1  UNL1        0.0527
     29 H         144.9252  142.4775  160.8759 H       1  UNL1        0.1686
     30 H         146.5593  141.6245  162.7068 H       1  UNL1        0.1437
     31 H         146.2598  141.9769  164.3481 H       1  UNL1        0.1437
@<TRIPOS>BOND
     1     9    10    1
     2    10    11   ar
     3    11    12   ar
     4    12    16    1
     5    16    17    3
     6    12    13   ar
     7    13    14   ar
     8    14    15   ar
     9    15     3    1
    10     3     4   ar
    11     4     5   ar
    12     5     6   ar
    13     6     7   ar
    14     7     1    1
    15     1    18    1
    16    18    19    1
    17    19    20   ar
    18    20    21   ar
    19    21    22   ar
    20    22    23   ar
    21    23    24   ar
    22    24    25    1
    23    24    26   ar
    24    26    27   ar
    25    27    28   ar
    26     7     8   ar
    27    15    10   ar
    28     8     3   ar
    29    28    19   ar
    30    28    22    1
    31     1     2    1
    32    23    29    1
    33    25    30    1
    34    25    31    1
@<TRIPOS>MOLECULE
*****
 31 34 0 0 0
SMALL
GASTEIGER

@<TRIPOS>ATOM
      1 N         144.2847  140.5200  161.5888 N.pl3   1  UNL1       -0.3132
      2 H         145.2225  140.2425  161.4760 H       1  UNL1        0.1485
      3 C         142.1244  139.1989  164.6446 C.ar    1  UNL1        0.0040
      4 C         141.4700  137.9970  164.0305 C.ar    1  UNL1        0.0208
      5 C         141.7538  137.6361  162.6024 C.ar    1  UNL1        0.1003
      6 N         142.6921  138.4771  161.7886 N.ar    1  UNL1       -0.2294
      7 C         143.3465  139.6790  162.4027 C.ar    1  UNL1        0.1288
      8 C         143.0627  140.0399  163.8307 C.ar    1  UNL1        0.0341
      9 C         143.8679  138.1263  166.8377 C.3     1  UNL1        0.0310
     10 C         142.7124  139.0234  167.1692 C.ar    1  UNL1       -0.0212
     11 C         142.4286  139.3843  168.5972 C.ar    1  UNL1        0.0060
     12 C         141.2730  140.2815  168.9286 C.ar    1  UNL1        0.0681
     13 C         140.4013  140.8178  167.8320 C.ar    1  UNL1        0.0103
     14 C         140.6851  140.4569  166.4040 C.ar    1  UNL1        0.0004
     15 C         141.8406  139.5597  166.0726 C.ar    1  UNL1       -0.0038
     16 C         140.9892  140.6424  170.3566 C.1     1  UNL1        0.1004
     17 N         140.7054  141.0033  171.7847 N.1     1  UNL1       -0.1908
     18 C         143.7940  141.7838  160.9468 C.3     1  UNL1        0.1368
     19 C         143.5577  143.0068  161.7825 C.ar    1  UNL1        0.1032
     20 N         144.5469  144.1052  162.0374 N.ar    1  UNL1       -0.1492
     21 N         143.8911  145.1233  162.9225 N.ar    1  UNL1       -0.1306
     22 C         142.4966  144.6542  163.2146 C.ar    1  UNL1        0.1641
     23 N         141.3879  145.2491  164.0311 N.ar    1  UNL1       -0.3262
     24 C         140.0731  144.5359  164.1431 C.ar    1  UNL1        0.1037
     25 N         138.9643  145.1308  164.9596 N.pl3   1  UNL1       -0.3441
     26 C         139.8670  143.2278  163.4385 C.ar    1  UNL1        0.0321
     27 C         140.9757  142.6329  162.6220 C.ar    1  UNL1        0.0071
     28 C         142.2905  143.3461  162.5101 C.ar    1  UNL1        0.0527
     29 H         141.5232  146.1076  164.4936 H       1  UNL1        0.1686
     30 H         139.0995  145.9894  165.4221 H       1  UNL1        0.1437
     31 H         138.1013  144.6628  165.0331 H       1  UNL1        0.1437
@<TRIPOS>BOND
     1     9    10    1
     2    10    11   ar
     3    11    12   ar
     4    12    16    1
     5    16    17    3
     6    12    13   ar
     7    13    14   ar
     8    14    15   ar
     9    15     3    1
    10     3     4   ar
    11     4     5   ar
    12     5     6   ar
    13     6     7   ar
    14     7     1    1
    15     1    18    1
    16    18    19    1
    17    19    20   ar
    18    20    21   ar
    19    21    22   ar
    20    22    23   ar
    21    23    24   ar
    22    24    25    1
    23    24    26   ar
    24    26    27   ar
    25    27    28   ar
    26     7     8   ar
    27    15    10   ar
    28     8     3   ar
    29    28    19   ar
    30    28    22    1
    31     1     2    1
    32    23    29    1
    33    25    30    1
    34    25    31    1
