@<TRIPOS>MOLECULE
*****
 27 30 0 0 0
SMALL
GASTEIGER

@<TRIPOS>ATOM
      1 C         140.2574  142.0275  167.0336 C.ar    1  UNL1        0.0890
      2 C         140.0764  142.9585  165.8715 C.ar    1  UNL1        0.0401
      3 C         139.2039  142.5583  164.7188 C.ar    1  UNL1        0.1051
      4 N         139.0228  143.4893  163.5567 N.ar    1  UNL1       -0.2405
      5 C         138.1504  143.0891  162.4041 C.ar    1  UNL1        0.1195
      6 C         137.4590  141.7580  162.4135 C.ar    1  UNL1        0.1197
      7 N         137.6401  140.8270  163.5756 N.ar    1  UNL1       -0.2360
      8 C         138.5125  141.2272  164.7282 C.ar    1  UNL1        0.1519
      9 C         138.6936  140.2962  165.8904 C.ar    1  UNL1        0.2445
     10 N         139.5661  140.6964  167.0430 N.ar    1  UNL1       -0.2102
     11 C         144.4572  142.6546  170.1721 C.3     1  UNL1        0.1538
     12 N         143.0604  142.7159  169.6289 N.ar    1  UNL1       -0.2473
     13 C         142.5939  142.1329  168.3279 C.ar    1  UNL1        0.0982
     14 C         141.1299  142.4277  168.1864 C.ar    1  UNL1        0.0574
     15 C         140.6916  143.1928  169.3998 C.ar    1  UNL1        0.1231
     16 N         141.8847  143.3709  170.2914 N.ar    1  UNL1       -0.1675
     17 O         138.0023  138.9651  165.8998 O.3     1  UNL1       -0.4591
     18 C         138.7538  137.7268  165.5102 C.3     1  UNL1        0.2086
     19 C         139.7307  137.7691  164.3727 C.3     1  UNL1        0.0650
     20 C         139.2434  137.6364  162.9603 C.3     1  UNL1        0.0726
     21 N         140.2202  137.6787  161.8228 N.3     1  UNL1       -0.2928
     22 C         141.6844  137.8537  162.0976 C.3     1  UNL1        0.1359
     23 C         142.1718  137.9864  163.5101 C.3     1  UNL1        0.2783
     24 F         143.1117  138.1540  164.6670 F       1  UNL1       -0.2028
     25 F         143.4750  138.0869  162.7743 F       1  UNL1       -0.2028
     26 C         141.1949  137.9441  164.6476 C.3     1  UNL1        0.0731
     27 H         139.9389  138.4532  161.2216 H       1  UNL1        0.1234
@<TRIPOS>BOND
     1    11    12    1
     2    12    13   ar
     3    13    14   ar
     4    14     1    1
     5     1     2   ar
     6     2     3   ar
     7     3     4   ar
     8     4     5   ar
     9     5     6   ar
    10     6     7   ar
    11     7     8   ar
    12     8     9   ar
    13     9    17    1
    14    17    18    1
    15    18    19    1
    16    19    20    1
    17    20    21    1
    18    21    22    1
    19    22    23    1
    20    23    24    1
    21    23    25    1
    22    23    26    1
    23     9    10   ar
    24    14    15   ar
    25    15    16   ar
    26    16    12   ar
    27    10     1   ar
    28     8     3   ar
    29    26    19    1
    30    21    27    1
@<TRIPOS>MOLECULE
*****
 27 30 0 0 0
SMALL
GASTEIGER

@<TRIPOS>ATOM
      1 C         139.3171  142.4954  165.0208 C.ar    1  UNL1        0.0890
      2 C         140.2581  142.8186  166.1433 C.ar    1  UNL1        0.0401
      3 C         140.4125  141.8648  167.2907 C.ar    1  UNL1        0.1051
      4 N         141.3534  142.1880  168.4132 N.ar    1  UNL1       -0.2405
      5 C         141.5078  141.2343  169.5606 C.ar    1  UNL1        0.1195
      6 C         140.7212  139.9573  169.5854 C.ar    1  UNL1        0.1197
      7 N         139.7802  139.6341  168.4629 N.ar    1  UNL1       -0.2360
      8 C         139.6259  140.5878  167.3155 C.ar    1  UNL1        0.1519
      9 C         138.6849  140.2647  166.1929 C.ar    1  UNL1        0.2445
     10 N         138.5305  141.2184  165.0456 N.ar    1  UNL1       -0.2102
     11 C         140.3835  145.5168  160.8237 C.3     1  UNL1        0.1538
     12 N         139.6529  144.8380  161.9441 N.ar    1  UNL1       -0.2473
     13 C         140.2495  143.8820  162.9344 C.ar    1  UNL1        0.0982
     14 C         139.1627  143.4492  163.8733 C.ar    1  UNL1        0.0574
     15 C         137.8946  144.1375  163.4635 C.ar    1  UNL1        0.1231
     16 N         138.1975  144.9958  162.2712 N.ar    1  UNL1       -0.1675
     17 O         137.8983  138.9877  166.2177 O.3     1  UNL1       -0.4591
     18 C         138.5253  137.7112  165.7408 C.3     1  UNL1        0.2086
     19 C         139.4321  137.7218  164.5460 C.3     1  UNL1        0.0650
     20 C         138.8556  137.6090  163.1658 C.3     1  UNL1        0.0726
     21 N         139.7624  137.6195  161.9710 N.3     1  UNL1       -0.2928
     22 C         141.2458  137.7428  162.1564 C.3     1  UNL1        0.1359
     23 C         141.8224  137.8556  163.5366 C.3     1  UNL1        0.2783
     24 F         142.8361  137.9880  164.6342 F       1  UNL1       -0.2028
     25 F         143.0812  137.9121  162.7230 F       1  UNL1       -0.2028
     26 C         140.9155  137.8451  164.7314 C.3     1  UNL1        0.0731
     27 H         139.4723  138.4046  161.3880 H       1  UNL1        0.1234
@<TRIPOS>BOND
     1    11    12    1
     2    12    13   ar
     3    13    14   ar
     4    14     1    1
     5     1     2   ar
     6     2     3   ar
     7     3     4   ar
     8     4     5   ar
     9     5     6   ar
    10     6     7   ar
    11     7     8   ar
    12     8     9   ar
    13     9    17    1
    14    17    18    1
    15    18    19    1
    16    19    20    1
    17    20    21    1
    18    21    22    1
    19    22    23    1
    20    23    24    1
    21    23    25    1
    22    23    26    1
    23     9    10   ar
    24    14    15   ar
    25    15    16   ar
    26    16    12   ar
    27    10     1   ar
    28     8     3   ar
    29    26    19    1
    30    21    27    1
@<TRIPOS>MOLECULE
*****
 27 30 0 0 0
SMALL
GASTEIGER

@<TRIPOS>ATOM
      1 C         140.7459  142.6078  165.9547 C.ar    1  UNL1        0.0890
      2 C         140.4981  142.8151  167.4195 C.ar    1  UNL1        0.0401
      3 C         141.2182  141.9709  168.4288 C.ar    1  UNL1        0.1051
      4 N         140.9705  142.1781  169.8936 N.ar    1  UNL1       -0.2405
      5 C         141.6906  141.3339  170.9028 C.ar    1  UNL1        0.1195
      6 C         142.6585  140.2824  170.4473 C.ar    1  UNL1        0.1197
      7 N         142.9062  140.0751  168.9826 N.ar    1  UNL1       -0.2360
      8 C         142.1861  140.9193  167.9733 C.ar    1  UNL1        0.1519
      9 C         142.4339  140.7121  166.5084 C.ar    1  UNL1        0.2445
     10 N         141.7138  141.5563  165.4992 N.ar    1  UNL1       -0.2102
     11 C         139.7608  146.0469  162.0710 C.3     1  UNL1        0.1538
     12 N         139.5730  145.0329  163.1602 N.ar    1  UNL1       -0.2473
     13 C         140.6629  144.4040  163.9768 C.ar    1  UNL1        0.0982
     14 C         140.0258  143.4521  164.9453 C.ar    1  UNL1        0.0574
     15 C         138.5422  143.4927  164.7274 C.ar    1  UNL1        0.1231
     16 N         138.2624  144.4696  163.6241 N.ar    1  UNL1       -0.1675
     17 O         143.4018  139.6605  166.0529 O.3     1  UNL1       -0.4591
     18 C         142.9057  138.2940  165.6836 C.3     1  UNL1        0.2086
     19 C         141.9715  138.1238  164.5224 C.3     1  UNL1        0.0650
     20 C         142.4800  138.2862  163.1206 C.3     1  UNL1        0.0726
     21 N         141.5458  138.1160  161.9594 N.3     1  UNL1       -0.2928
     22 C         140.1032  137.7832  162.2000 C.3     1  UNL1        0.1359
     23 C         139.5946  137.6208  163.6018 C.3     1  UNL1        0.2783
     24 F         138.6474  137.3688  164.7373 F       1  UNL1       -0.2028
     25 F         138.3315  137.3630  162.8350 F       1  UNL1       -0.2028
     26 C         140.5287  137.7910  164.7630 C.3     1  UNL1        0.0731
     27 H         141.9281  137.3677  161.3812 H       1  UNL1        0.1234
@<TRIPOS>BOND
     1    11    12    1
     2    12    13   ar
     3    13    14   ar
     4    14     1    1
     5     1     2   ar
     6     2     3   ar
     7     3     4   ar
     8     4     5   ar
     9     5     6   ar
    10     6     7   ar
    11     7     8   ar
    12     8     9   ar
    13     9    17    1
    14    17    18    1
    15    18    19    1
    16    19    20    1
    17    20    21    1
    18    21    22    1
    19    22    23    1
    20    23    24    1
    21    23    25    1
    22    23    26    1
    23     9    10   ar
    24    14    15   ar
    25    15    16   ar
    26    16    12   ar
    27    10     1   ar
    28     8     3   ar
    29    26    19    1
    30    21    27    1
@<TRIPOS>MOLECULE
*****
 27 30 0 0 0
SMALL
GASTEIGER

@<TRIPOS>ATOM
      1 C         139.4338  140.3348  166.2030 C.ar    1  UNL1        0.0890
      2 C         139.1919  139.1500  165.3156 C.ar    1  UNL1        0.0401
      3 C         138.6729  139.3498  163.9224 C.ar    1  UNL1        0.1051
      4 N         138.4310  138.1650  163.0350 N.ar    1  UNL1       -0.2405
      5 C         137.9121  138.3649  161.6420 C.ar    1  UNL1        0.1195
      6 C         137.6351  139.7497  161.1363 C.ar    1  UNL1        0.1197
      7 N         137.8771  140.9345  162.0237 N.ar    1  UNL1       -0.2360
      8 C         138.3960  140.7346  163.4168 C.ar    1  UNL1        0.1519
      9 C         138.6379  141.9195  164.3043 C.ar    1  UNL1        0.2445
     10 N         139.1568  141.7196  165.6973 N.ar    1  UNL1       -0.2102
     11 C         142.7007  139.6763  170.2987 C.3     1  UNL1        0.1538
     12 N         141.4544  139.8323  169.4788 N.ar    1  UNL1       -0.2473
     13 C         141.3953  140.0253  167.9923 C.ar    1  UNL1        0.0982
     14 C         139.9527  140.1350  167.5962 C.ar    1  UNL1        0.0574
     15 C         139.1203  140.0097  168.8376 C.ar    1  UNL1        0.1231
     16 N         140.0483  139.8226  170.0011 N.ar    1  UNL1       -0.1675
     17 O         138.3609  143.3043  163.7986 O.3     1  UNL1       -0.4591
     18 C         139.2549  144.4410  164.1969 C.3     1  UNL1        0.2086
     19 C         140.6856  144.4633  163.7466 C.3     1  UNL1        0.0650
     20 C         141.0468  145.0762  162.4261 C.3     1  UNL1        0.0726
     21 N         142.4774  145.0985  161.9758 N.3     1  UNL1       -0.2928
     22 C         143.5469  144.5079  162.8461 C.3     1  UNL1        0.1359
     23 C         143.1857  143.8949  164.1667 C.3     1  UNL1        0.2783
     24 F         143.3400  143.2067  165.4905 F       1  UNL1       -0.2028
     25 F         144.6699  143.6783  164.1761 F       1  UNL1       -0.2028
     26 C         141.7551  143.8726  164.6169 C.3     1  UNL1        0.0731
     27 H         142.7246  146.0771  161.8287 H       1  UNL1        0.1234
@<TRIPOS>BOND
     1    11    12    1
     2    12    13   ar
     3    13    14   ar
     4    14     1    1
     5     1     2   ar
     6     2     3   ar
     7     3     4   ar
     8     4     5   ar
     9     5     6   ar
    10     6     7   ar
    11     7     8   ar
    12     8     9   ar
    13     9    17    1
    14    17    18    1
    15    18    19    1
    16    19    20    1
    17    20    21    1
    18    21    22    1
    19    22    23    1
    20    23    24    1
    21    23    25    1
    22    23    26    1
    23     9    10   ar
    24    14    15   ar
    25    15    16   ar
    26    16    12   ar
    27    10     1   ar
    28     8     3   ar
    29    26    19    1
    30    21    27    1
@<TRIPOS>MOLECULE
*****
 27 30 0 0 0
SMALL
GASTEIGER

@<TRIPOS>ATOM
      1 C         139.9553  140.1140  165.1687 C.ar    1  UNL1        0.0890
      2 C         139.4897  140.1572  166.5940 C.ar    1  UNL1        0.0401
      3 C         140.4587  139.8921  167.7079 C.ar    1  UNL1        0.1051
      4 N         139.9931  139.9354  169.1332 N.ar    1  UNL1       -0.2405
      5 C         140.9621  139.6703  170.2470 C.ar    1  UNL1        0.1195
      6 C         142.3967  139.3621  169.9357 C.ar    1  UNL1        0.1197
      7 N         142.8623  139.3188  168.5104 N.ar    1  UNL1       -0.2360
      8 C         141.8933  139.5839  167.3966 C.ar    1  UNL1        0.1519
      9 C         142.3588  139.5407  165.9713 C.ar    1  UNL1        0.2445
     10 N         141.3899  139.8057  164.8574 N.ar    1  UNL1       -0.2102
     11 C         137.3726  139.7857  160.5749 C.3     1  UNL1        0.1538
     12 N         137.7992  140.2281  161.9432 N.ar    1  UNL1       -0.2473
     13 C         138.9087  139.6307  162.7571 C.ar    1  UNL1        0.0982
     14 C         138.9863  140.3790  164.0548 C.ar    1  UNL1        0.0574
     15 C         137.9248  141.4388  164.0430 C.ar    1  UNL1        0.1231
     16 N         137.1912  141.3456  162.7380 N.ar    1  UNL1       -0.1675
     17 O         143.7934  139.2324  165.6599 O.3     1  UNL1       -0.4591
     18 C         144.3380  139.5021  164.2885 C.3     1  UNL1        0.2086
     19 C         144.3639  140.9035  163.7541 C.3     1  UNL1        0.0650
     20 C         144.4841  141.1411  162.2780 C.3     1  UNL1        0.0726
     21 N         144.5100  142.5424  161.7435 N.3     1  UNL1       -0.2928
     22 C         144.4157  143.7061  162.6852 C.3     1  UNL1        0.1359
     23 C         144.2955  143.4685  164.1615 C.3     1  UNL1        0.2783
     24 F         144.1691  143.7517  165.6290 F       1  UNL1       -0.2028
     25 F         144.2775  144.9682  164.1367 F       1  UNL1       -0.2028
     26 C         144.2696  142.0672  164.6959 C.3     1  UNL1        0.0731
     27 H         143.7273  142.6246  161.0946 H       1  UNL1        0.1234
@<TRIPOS>BOND
     1    11    12    1
     2    12    13   ar
     3    13    14   ar
     4    14     1    1
     5     1     2   ar
     6     2     3   ar
     7     3     4   ar
     8     4     5   ar
     9     5     6   ar
    10     6     7   ar
    11     7     8   ar
    12     8     9   ar
    13     9    17    1
    14    17    18    1
    15    18    19    1
    16    19    20    1
    17    20    21    1
    18    21    22    1
    19    22    23    1
    20    23    24    1
    21    23    25    1
    22    23    26    1
    23     9    10   ar
    24    14    15   ar
    25    15    16   ar
    26    16    12   ar
    27    10     1   ar
    28     8     3   ar
    29    26    19    1
    30    21    27    1
@<TRIPOS>MOLECULE
*****
 27 30 0 0 0
SMALL
GASTEIGER

@<TRIPOS>ATOM
      1 C         142.1653  139.6422  165.7523 C.ar    1  UNL1        0.0890
      2 C         143.3018  139.2189  164.8697 C.ar    1  UNL1        0.0401
      3 C         143.0347  138.7876  163.4581 C.ar    1  UNL1        0.1051
      4 N         144.1712  138.3642  162.5754 N.ar    1  UNL1       -0.2405
      5 C         143.9041  137.9330  161.1638 C.ar    1  UNL1        0.1195
      6 C         142.5005  137.9251  160.6349 C.ar    1  UNL1        0.1197
      7 N         141.3640  138.3484  161.5175 N.ar    1  UNL1       -0.2360
      8 C         141.6311  138.7797  162.9291 C.ar    1  UNL1        0.1519
      9 C         140.4945  139.2031  163.8118 C.ar    1  UNL1        0.2445
     10 N         140.7616  139.6343  165.2234 N.ar    1  UNL1       -0.2102
     11 C         142.7166  142.6288  170.0718 C.3     1  UNL1        0.1538
     12 N         142.6858  141.4463  169.1494 N.ar    1  UNL1       -0.2473
     13 C         142.3344  141.4743  167.6914 C.ar    1  UNL1        0.0982
     14 C         142.4323  140.0735  167.1640 C.ar    1  UNL1        0.0574
     15 C         142.8442  139.1797  168.2960 C.ar    1  UNL1        0.1231
     16 N         143.0008  140.0281  169.5231 N.ar    1  UNL1       -0.1675
     17 O         139.0909  139.1952  163.2828 O.3     1  UNL1       -0.4591
     18 C         138.0486  140.0736  163.9088 C.3     1  UNL1        0.2086
     19 C         138.1345  141.5635  163.7584 C.3     1  UNL1        0.0650
     20 C         137.5894  142.2258  162.5279 C.3     1  UNL1        0.0726
     21 N         137.6753  143.7158  162.3775 N.3     1  UNL1       -0.2928
     22 C         138.3063  144.5435  163.4576 C.3     1  UNL1        0.1359
     23 C         138.8515  143.8812  164.6882 C.3     1  UNL1        0.2783
     24 F         139.5053  143.7165  166.0281 F       1  UNL1       -0.2028
     25 F         139.1644  145.3140  165.0031 F       1  UNL1       -0.2028
     26 C         138.7655  142.3913  164.8386 C.3     1  UNL1        0.0731
     27 H         136.7202  144.0560  162.2658 H       1  UNL1        0.1234
@<TRIPOS>BOND
     1    11    12    1
     2    12    13   ar
     3    13    14   ar
     4    14     1    1
     5     1     2   ar
     6     2     3   ar
     7     3     4   ar
     8     4     5   ar
     9     5     6   ar
    10     6     7   ar
    11     7     8   ar
    12     8     9   ar
    13     9    17    1
    14    17    18    1
    15    18    19    1
    16    19    20    1
    17    20    21    1
    18    21    22    1
    19    22    23    1
    20    23    24    1
    21    23    25    1
    22    23    26    1
    23     9    10   ar
    24    14    15   ar
    25    15    16   ar
    26    16    12   ar
    27    10     1   ar
    28     8     3   ar
    29    26    19    1
    30    21    27    1
@<TRIPOS>MOLECULE
*****
 27 30 0 0 0
SMALL
GASTEIGER

@<TRIPOS>ATOM
      1 C         139.8536  139.7046  165.2915 C.ar    1  UNL1        0.0890
      2 C         139.1429  139.5479  166.6030 C.ar    1  UNL1        0.0401
      3 C         139.8068  139.9899  167.8734 C.ar    1  UNL1        0.1051
      4 N         139.0960  139.8331  169.1850 N.ar    1  UNL1       -0.2405
      5 C         139.7600  140.2751  170.4553 C.ar    1  UNL1        0.1195
      6 C         141.1347  140.8739  170.4141 C.ar    1  UNL1        0.1197
      7 N         141.8455  141.0306  169.1025 N.ar    1  UNL1       -0.2360
      8 C         141.1815  140.5886  167.8322 C.ar    1  UNL1        0.1519
      9 C         141.8923  140.7454  166.5205 C.ar    1  UNL1        0.2445
     10 N         141.2283  140.3034  165.2502 N.ar    1  UNL1       -0.2102
     11 C         137.4140  139.7842  160.6092 C.3     1  UNL1        0.1538
     12 N         138.0683  139.2992  161.8688 N.ar    1  UNL1       -0.2473
     13 C         138.6382  140.1625  162.9552 C.ar    1  UNL1        0.0982
     14 C         139.1897  139.2626  164.0210 C.ar    1  UNL1        0.0574
     15 C         138.9607  137.8432  163.5935 C.ar    1  UNL1        0.1231
     16 N         138.2677  137.8658  162.2634 N.ar    1  UNL1       -0.1675
     17 O         143.2670  141.3441  166.4793 O.3     1  UNL1       -0.4591
     18 C         143.5038  142.6284  165.7415 C.3     1  UNL1        0.2086
     19 C         143.9865  142.5997  164.3216 C.3     1  UNL1        0.0650
     20 C         145.3072  141.9702  163.9910 C.3     1  UNL1        0.0726
     21 N         145.7899  141.9414  162.5711 N.3     1  UNL1       -0.2928
     22 C         144.9518  142.5421  161.4817 C.3     1  UNL1        0.1359
     23 C         143.6310  143.1717  161.8123 C.3     1  UNL1        0.2783
     24 F         142.3197  143.8762  161.6275 F       1  UNL1       -0.2028
     25 F         143.6583  143.3876  160.3282 F       1  UNL1       -0.2028
     26 C         143.1483  143.2004  163.2322 C.3     1  UNL1        0.0731
     27 H         145.9304  140.9609  162.3276 H       1  UNL1        0.1234
@<TRIPOS>BOND
     1    11    12    1
     2    12    13   ar
     3    13    14   ar
     4    14     1    1
     5     1     2   ar
     6     2     3   ar
     7     3     4   ar
     8     4     5   ar
     9     5     6   ar
    10     6     7   ar
    11     7     8   ar
    12     8     9   ar
    13     9    17    1
    14    17    18    1
    15    18    19    1
    16    19    20    1
    17    20    21    1
    18    21    22    1
    19    22    23    1
    20    23    24    1
    21    23    25    1
    22    23    26    1
    23     9    10   ar
    24    14    15   ar
    25    15    16   ar
    26    16    12   ar
    27    10     1   ar
    28     8     3   ar
    29    26    19    1
    30    21    27    1
@<TRIPOS>MOLECULE
*****
 27 30 0 0 0
SMALL
GASTEIGER

@<TRIPOS>ATOM
      1 C         140.7213  139.4801  166.1367 C.ar    1  UNL1        0.0890
      2 C         139.5298  139.3292  165.2381 C.ar    1  UNL1        0.0401
      3 C         139.7203  138.9747  163.7930 C.ar    1  UNL1        0.1051
      4 N         138.5287  138.8237  162.8945 N.ar    1  UNL1       -0.2405
      5 C         138.7193  138.4692  161.4495 C.ar    1  UNL1        0.1195
      6 C         140.1013  138.2657  160.9031 C.ar    1  UNL1        0.1197
      7 N         141.2928  138.4166  161.8017 N.ar    1  UNL1       -0.2360
      8 C         141.1023  138.7711  163.2466 C.ar    1  UNL1        0.1519
      9 C         142.2938  138.9221  164.1453 C.ar    1  UNL1        0.2445
     10 N         142.1033  139.2766  165.5903 N.ar    1  UNL1       -0.2102
     11 C         141.6862  140.9380  171.1191 C.3     1  UNL1        0.1538
     12 N         140.9744  140.5047  169.8719 N.ar    1  UNL1       -0.2473
     13 C         141.6107  140.2446  168.5386 C.ar    1  UNL1        0.0982
     14 C         140.5308  139.8346  167.5817 C.ar    1  UNL1        0.0574
     15 C         139.2271  139.8414  168.3234 C.ar    1  UNL1        0.1231
     16 N         139.5011  140.2555  169.7388 N.ar    1  UNL1       -0.1675
     17 O         143.6759  138.7186  163.5989 O.3     1  UNL1       -0.4591
     18 C         144.7766  139.6673  163.9706 C.3     1  UNL1        0.2086
     19 C         144.6771  141.1159  163.5943 C.3     1  UNL1        0.0650
     20 C         144.8845  141.5366  162.1695 C.3     1  UNL1        0.0726
     21 N         144.7851  142.9852  161.7932 N.3     1  UNL1       -0.2928
     22 C         144.4782  144.0131  162.8416 C.3     1  UNL1        0.1359
     23 C         144.2708  143.5925  164.2664 C.3     1  UNL1        0.2783
     24 F         143.9957  143.6861  165.7380 F       1  UNL1       -0.2028
     25 F         144.0758  145.0736  164.4012 F       1  UNL1       -0.2028
     26 C         144.3703  142.1438  164.6428 C.3     1  UNL1        0.0731
     27 H         144.0520  143.0565  161.0875 H       1  UNL1        0.1234
@<TRIPOS>BOND
     1    11    12    1
     2    12    13   ar
     3    13    14   ar
     4    14     1    1
     5     1     2   ar
     6     2     3   ar
     7     3     4   ar
     8     4     5   ar
     9     5     6   ar
    10     6     7   ar
    11     7     8   ar
    12     8     9   ar
    13     9    17    1
    14    17    18    1
    15    18    19    1
    16    19    20    1
    17    20    21    1
    18    21    22    1
    19    22    23    1
    20    23    24    1
    21    23    25    1
    22    23    26    1
    23     9    10   ar
    24    14    15   ar
    25    15    16   ar
    26    16    12   ar
    27    10     1   ar
    28     8     3   ar
    29    26    19    1
    30    21    27    1
@<TRIPOS>MOLECULE
*****
 27 30 0 0 0
SMALL
GASTEIGER

@<TRIPOS>ATOM
      1 C         142.4357  141.7583  165.6969 C.ar    1  UNL1        0.0890
      2 C         142.7675  142.1018  167.1188 C.ar    1  UNL1        0.0401
      3 C         142.0215  141.4455  168.2426 C.ar    1  UNL1        0.1051
      4 N         142.3533  141.7890  169.6645 N.ar    1  UNL1       -0.2405
      5 C         141.6073  141.1327  170.7882 C.ar    1  UNL1        0.1195
      6 C         140.5295  140.1330  170.4900 C.ar    1  UNL1        0.1197
      7 N         140.1977  139.7895  169.0681 N.ar    1  UNL1       -0.2360
      8 C         140.9437  140.4457  167.9444 C.ar    1  UNL1        0.1519
      9 C         140.6119  140.1023  166.5224 C.ar    1  UNL1        0.2445
     10 N         141.3579  140.7585  165.3987 N.ar    1  UNL1       -0.2102
     11 C         144.7745  142.6009  161.0384 C.3     1  UNL1        0.1538
     12 N         144.2567  142.8018  162.4318 N.ar    1  UNL1       -0.2473
     13 C         143.5021  141.7929  163.2461 C.ar    1  UNL1        0.0982
     14 C         143.1817  142.4145  164.5731 C.ar    1  UNL1        0.0574
     15 C         143.7381  143.8075  164.5790 C.ar    1  UNL1        0.1231
     16 N         144.4025  144.0469  163.2556 N.ar    1  UNL1       -0.1675
     17 O         139.5341  139.1025  166.2242 O.3     1  UNL1       -0.4591
     18 C         138.1874  139.5687  165.7564 C.3     1  UNL1        0.2086
     19 C         138.0725  140.4079  164.5185 C.3     1  UNL1        0.0650
     20 C         138.1866  139.7692  163.1661 C.3     1  UNL1        0.0726
     21 N         138.0717  140.6085  161.9282 N.3     1  UNL1       -0.2928
     22 C         137.8427  142.0864  162.0427 C.3     1  UNL1        0.1359
     23 C         137.7285  142.7252  163.3951 C.3     1  UNL1        0.2783
     24 F         137.5533  143.7830  164.4442 F       1  UNL1       -0.2028
     25 F         137.5528  143.9318  162.5215 F       1  UNL1       -0.2028
     26 C         137.8434  141.8860  164.6330 C.3     1  UNL1        0.0731
     27 H         137.2935  140.2309  161.3877 H       1  UNL1        0.1234
@<TRIPOS>BOND
     1    11    12    1
     2    12    13   ar
     3    13    14   ar
     4    14     1    1
     5     1     2   ar
     6     2     3   ar
     7     3     4   ar
     8     4     5   ar
     9     5     6   ar
    10     6     7   ar
    11     7     8   ar
    12     8     9   ar
    13     9    17    1
    14    17    18    1
    15    18    19    1
    16    19    20    1
    17    20    21    1
    18    21    22    1
    19    22    23    1
    20    23    24    1
    21    23    25    1
    22    23    26    1
    23     9    10   ar
    24    14    15   ar
    25    15    16   ar
    26    16    12   ar
    27    10     1   ar
    28     8     3   ar
    29    26    19    1
    30    21    27    1
