@<TRIPOS>MOLECULE
*****
 37 41 0 0 0
SMALL
GASTEIGER

@<TRIPOS>ATOM
      1 C         141.0932  140.2902  165.1824 C.3     1  UNL1        0.0760
      2 C         142.6945  139.7179  163.2180 C.ar    1  UNL1        0.1351
      3 C         143.0292  139.7723  161.7569 C.ar    1  UNL1        0.0366
      4 C         142.0973  140.4533  160.7988 C.ar    1  UNL1        0.0030
      5 C         142.4320  140.5077  159.3377 C.ar    1  UNL1        0.0006
      6 C         141.5002  141.1887  158.3797 C.ar    1  UNL1        0.0067
      7 C         140.2336  141.8154  158.8828 C.ar    1  UNL1        0.0346
      8 BR        139.3018  142.4965  157.9247 Br      1  UNL1       -0.0490
      9 C         139.8989  141.7611  160.3439 C.ar    1  UNL1        0.0067
     10 C         140.8308  141.0800  161.3019 C.ar    1  UNL1        0.0004
     11 C         140.4961  141.0256  162.7632 C.ar    1  UNL1       -0.0009
     12 C         141.4279  140.3446  163.7212 C.ar    1  UNL1        0.0181
     13 C         145.0340  139.5308  164.3323 C.3     1  UNL1        0.2525
     14 O         143.6263  139.0368  164.1761 O.3     1  UNL1       -0.4717
     15 C         139.9750  139.4138  165.6636 C.ar    1  UNL1       -0.0157
     16 C         139.1515  139.8301  166.8461 C.ar    1  UNL1       -0.0039
     17 C         138.0333  138.9537  167.3272 C.ar    1  UNL1       -0.0003
     18 C         137.7386  137.6610  166.6259 C.ar    1  UNL1       -0.0000
     19 C         138.5621  137.2446  165.4433 C.ar    1  UNL1       -0.0003
     20 C         139.6804  138.1210  164.9621 C.ar    1  UNL1       -0.0039
     21 C         141.8767  141.1122  166.1624 C.3     1  UNL1        0.1162
     22 O         142.4427  139.8588  166.7612 O.3     1  UNL1       -0.3820
     23 H         142.9405  140.0801  167.5638 H       1  UNL1        0.2107
     24 C         141.3107  142.3656  165.5636 C.ar    1  UNL1        0.0084
     25 C         139.8772  142.7330  165.8088 C.ar    1  UNL1       -0.0015
     26 C         139.3112  143.9864  165.2100 C.ar    1  UNL1       -0.0002
     27 C         140.1787  144.8724  164.3659 C.ar    1  UNL1        0.0005
     28 C         141.6121  144.5051  164.1207 C.ar    1  UNL1        0.0063
     29 C         142.7007  145.1772  163.3376 C.ar    1  UNL1        0.0075
     30 C         143.9395  144.3392  163.4523 C.ar    1  UNL1        0.0354
     31 S         143.6165  143.1491  164.3064 S.2     1  UNL1       -0.0867
     32 C         142.1782  143.2516  164.7195 C.ar    1  UNL1        0.0277
     33 C         142.6602  141.9342  167.1423 C.3     1  UNL1        0.0491
     34 C         142.7166  141.5287  168.5854 C.3     1  UNL1        0.0750
     35 N         141.4482  141.2518  169.3367 N.3     1  UNL1       -0.2702
     36 C         141.2331  139.9126  169.9775 C.3     1  UNL1        0.0897
     37 C         140.3949  142.3139  169.4473 C.3     1  UNL1        0.0897
@<TRIPOS>BOND
     1    13    14    1
     2    14     2    1
     3     2     3   ar
     4     3     4   ar
     5     4     5   ar
     6     5     6   ar
     7     6     7   ar
     8     7     8    1
     9     7     9   ar
    10     9    10   ar
    11    10    11   ar
    12    11    12   ar
    13     1    12    1
    14     1    15    1
    15    15    16   ar
    16    16    17   ar
    17    17    18   ar
    18    18    19   ar
    19    19    20   ar
    20     1    21    1
    21    21    22    1
    22    21    33    1
    23    33    34    1
    24    34    35    1
    25    35    36    1
    26    35    37    1
    27    21    24    1
    28    24    25   ar
    29    25    26   ar
    30    26    27   ar
    31    27    28   ar
    32    28    29   ar
    33    29    30   ar
    34    30    31   ar
    35    31    32   ar
    36    12     2   ar
    37    20    15   ar
    38    32    24   ar
    39    10     4   ar
    40    32    28   ar
    41    22    23    1
@<TRIPOS>MOLECULE
*****
 37 41 0 0 0
SMALL
GASTEIGER

@<TRIPOS>ATOM
      1 C         140.8692  141.6765  165.7865 C.3     1  UNL1        0.0760
      2 C         139.9477  143.8553  164.7123 C.ar    1  UNL1        0.1351
      3 C         139.8321  144.7735  163.5319 C.ar    1  UNL1        0.0366
      4 C         140.5225  144.4311  162.2449 C.ar    1  UNL1        0.0030
      5 C         140.4070  145.3493  161.0645 C.ar    1  UNL1        0.0006
      6 C         141.0974  145.0068  159.7776 C.ar    1  UNL1        0.0067
      7 C         141.9033  143.7462  159.6712 C.ar    1  UNL1        0.0346
      8 BR        142.5937  143.4038  158.3843 Br      1  UNL1       -0.0490
      9 C         142.0189  142.8280  160.8517 C.ar    1  UNL1        0.0067
     10 C         141.3285  143.1705  162.1385 C.ar    1  UNL1        0.0004
     11 C         141.4440  142.2523  163.3191 C.ar    1  UNL1       -0.0009
     12 C         140.7536  142.5947  164.6060 C.ar    1  UNL1        0.0181
     13 C         138.1623  145.2228  166.0133 C.3     1  UNL1        0.2525
     14 O         139.2573  144.1977  165.9993 O.3     1  UNL1       -0.4717
     15 C         139.9257  140.5195  165.9319 C.ar    1  UNL1       -0.0157
     16 C         139.3165  140.2118  167.2676 C.ar    1  UNL1       -0.0039
     17 C         138.3730  139.0547  167.4130 C.ar    1  UNL1       -0.0003
     18 C         138.0387  138.2055  166.2227 C.ar    1  UNL1       -0.0000
     19 C         138.6478  138.5132  164.8869 C.ar    1  UNL1       -0.0003
     20 C         139.5913  139.6702  164.7415 C.ar    1  UNL1       -0.0039
     21 C         141.9281  141.9153  166.8216 C.3     1  UNL1        0.1162
     22 O         141.0026  142.8401  167.5551 O.3     1  UNL1       -0.3820
     23 H         141.4867  143.2818  168.2703 H       1  UNL1        0.2107
     24 C         142.8537  140.9906  166.0881 C.ar    1  UNL1        0.0084
     25 C         142.7365  139.5071  166.2767 C.ar    1  UNL1       -0.0015
     26 C         143.6620  138.5823  165.5431 C.ar    1  UNL1       -0.0002
     27 C         144.7048  139.1410  164.6210 C.ar    1  UNL1        0.0005
     28 C         144.8221  140.6244  164.4323 C.ar    1  UNL1        0.0063
     29 C         145.7451  141.4600  163.5957 C.ar    1  UNL1        0.0075
     30 C         145.3900  142.9012  163.8122 C.ar    1  UNL1        0.0354
     31 S         144.2475  142.9563  164.7826 S.2     1  UNL1       -0.0867
     32 C         143.8965  141.5493  165.1659 C.ar    1  UNL1        0.0277
     33 C         142.9871  142.1542  167.8567 C.3     1  UNL1        0.0491
     34 C         142.6021  142.3408  169.2944 C.3     1  UNL1        0.0750
     35 N         141.8932  141.2422  170.0296 N.3     1  UNL1       -0.2702
     36 C         142.3987  139.8327  169.9411 C.3     1  UNL1        0.0897
     37 C         140.6788  141.5530  170.8533 C.3     1  UNL1        0.0897
@<TRIPOS>BOND
     1    13    14    1
     2    14     2    1
     3     2     3   ar
     4     3     4   ar
     5     4     5   ar
     6     5     6   ar
     7     6     7   ar
     8     7     8    1
     9     7     9   ar
    10     9    10   ar
    11    10    11   ar
    12    11    12   ar
    13     1    12    1
    14     1    15    1
    15    15    16   ar
    16    16    17   ar
    17    17    18   ar
    18    18    19   ar
    19    19    20   ar
    20     1    21    1
    21    21    22    1
    22    21    33    1
    23    33    34    1
    24    34    35    1
    25    35    36    1
    26    35    37    1
    27    21    24    1
    28    24    25   ar
    29    25    26   ar
    30    26    27   ar
    31    27    28   ar
    32    28    29   ar
    33    29    30   ar
    34    30    31   ar
    35    31    32   ar
    36    12     2   ar
    37    20    15   ar
    38    32    24   ar
    39    10     4   ar
    40    32    28   ar
    41    22    23    1
@<TRIPOS>MOLECULE
*****
 37 41 0 0 0
SMALL
GASTEIGER

@<TRIPOS>ATOM
      1 C         140.4372  140.9877  165.3082 C.3     1  UNL1        0.0760
      2 C         139.5231  142.8268  163.7170 C.ar    1  UNL1        0.1351
      3 C         139.4488  143.4438  162.3518 C.ar    1  UNL1        0.0366
      4 C         140.2144  142.8387  161.2125 C.ar    1  UNL1        0.0030
      5 C         140.1401  143.4557  159.8474 C.ar    1  UNL1        0.0006
      6 C         140.9056  142.8506  158.7082 C.ar    1  UNL1        0.0067
      7 C         141.7455  141.6285  158.9342 C.ar    1  UNL1        0.0346
      8 BR        142.5110  141.0234  157.7949 Br      1  UNL1       -0.0490
      9 C         141.8198  141.0115  160.2994 C.ar    1  UNL1        0.0067
     10 C         141.0542  141.6166  161.4385 C.ar    1  UNL1        0.0004
     11 C         141.1285  140.9996  162.8038 C.ar    1  UNL1       -0.0009
     12 C         140.3630  141.6047  163.9430 C.ar    1  UNL1        0.0181
     13 C         138.7864  144.9156  165.0750 C.3     1  UNL1        0.2525
     14 O         138.7576  143.4320  164.8562 O.3     1  UNL1       -0.4717
     15 C         139.6091  139.7794  165.6312 C.ar    1  UNL1       -0.0157
     16 C         139.6714  138.5693  164.7472 C.ar    1  UNL1       -0.0039
     17 C         138.8432  137.3610  165.0702 C.ar    1  UNL1       -0.0003
     18 C         137.9528  137.3629  166.2773 C.ar    1  UNL1       -0.0000
     19 C         137.8905  138.5731  167.1614 C.ar    1  UNL1       -0.0003
     20 C         138.7186  139.7814  166.8384 C.ar    1  UNL1       -0.0039
     21 C         141.3396  141.5789  166.3504 C.3     1  UNL1        0.1162
     22 O         140.1864  142.3617  166.9047 O.3     1  UNL1       -0.3820
     23 H         140.5103  142.9837  167.5749 H       1  UNL1        0.2107
     24 C         142.4927  140.7961  165.7960 C.ar    1  UNL1        0.0084
     25 C         142.6094  139.3282  166.0820 C.ar    1  UNL1       -0.0015
     26 C         143.7625  138.5453  165.5277 C.ar    1  UNL1       -0.0002
     27 C         144.7991  139.2303  164.6873 C.ar    1  UNL1        0.0005
     28 C         144.6825  140.6982  164.4012 C.ar    1  UNL1        0.0063
     29 C         145.5440  141.6384  163.6114 C.ar    1  UNL1        0.0075
     30 C         144.9233  143.0023  163.6776 C.ar    1  UNL1        0.0354
     31 S         143.6781  142.9051  164.5084 S.2     1  UNL1       -0.0867
     32 C         143.5293  141.4811  164.9556 C.ar    1  UNL1        0.0277
     33 C         142.2420  142.1701  167.3925 C.3     1  UNL1        0.0491
     34 C         141.7481  142.3505  168.7973 C.3     1  UNL1        0.0750
     35 N         141.0543  141.2209  169.4993 N.3     1  UNL1       -0.2702
     36 C         139.6918  141.4295  170.0911 C.3     1  UNL1        0.0897
     37 C         141.7230  139.8827  169.6094 C.3     1  UNL1        0.0897
@<TRIPOS>BOND
     1    13    14    1
     2    14     2    1
     3     2     3   ar
     4     3     4   ar
     5     4     5   ar
     6     5     6   ar
     7     6     7   ar
     8     7     8    1
     9     7     9   ar
    10     9    10   ar
    11    10    11   ar
    12    11    12   ar
    13     1    12    1
    14     1    15    1
    15    15    16   ar
    16    16    17   ar
    17    17    18   ar
    18    18    19   ar
    19    19    20   ar
    20     1    21    1
    21    21    22    1
    22    21    33    1
    23    33    34    1
    24    34    35    1
    25    35    36    1
    26    35    37    1
    27    21    24    1
    28    24    25   ar
    29    25    26   ar
    30    26    27   ar
    31    27    28   ar
    32    28    29   ar
    33    29    30   ar
    34    30    31   ar
    35    31    32   ar
    36    12     2   ar
    37    20    15   ar
    38    32    24   ar
    39    10     4   ar
    40    32    28   ar
    41    22    23    1
@<TRIPOS>MOLECULE
*****
 37 41 0 0 0
SMALL
GASTEIGER

@<TRIPOS>ATOM
      1 C         140.6857  140.6810  162.6041 C.3     1  UNL1        0.0760
      2 C         139.2810  139.6935  164.5539 C.ar    1  UNL1        0.1351
      3 C         139.0182  139.5519  166.0239 C.ar    1  UNL1        0.0366
      4 C         139.8974  140.2564  167.0142 C.ar    1  UNL1        0.0030
      5 C         139.6346  140.1149  168.4842 C.ar    1  UNL1        0.0006
      6 C         140.5138  140.8194  169.4745 C.ar    1  UNL1        0.0067
      7 C         141.6558  141.6654  168.9948 C.ar    1  UNL1        0.0346
      8 BR        142.5350  142.3699  169.9851 Br      1  UNL1       -0.0490
      9 C         141.9186  141.8069  167.5248 C.ar    1  UNL1        0.0067
     10 C         141.0394  141.1025  166.5345 C.ar    1  UNL1        0.0004
     11 C         141.3021  141.2440  165.0645 C.ar    1  UNL1       -0.0009
     12 C         140.4229  140.5395  164.0742 C.ar    1  UNL1        0.0181
     13 C         138.7604  137.6121  163.0887 C.3     1  UNL1        0.2525
     14 O         138.4017  138.9889  163.5636 O.3     1  UNL1       -0.4717
     15 C         141.8499  139.9715  161.9787 C.ar    1  UNL1       -0.0157
     16 C         142.4855  140.5234  160.7372 C.ar    1  UNL1       -0.0039
     17 C         143.6497  139.8139  160.1117 C.ar    1  UNL1       -0.0003
     18 C         144.1783  138.5525  160.7277 C.ar    1  UNL1       -0.0000
     19 C         143.5427  138.0006  161.9693 C.ar    1  UNL1       -0.0003
     20 C         142.3785  138.7101  162.5948 C.ar    1  UNL1       -0.0039
     21 C         139.7843  141.5320  161.7597 C.3     1  UNL1        0.1162
     22 O         139.3080  140.3082  161.0349 O.3     1  UNL1       -0.3820
     23 H         138.7544  140.5724  160.2834 H       1  UNL1        0.2107
     24 C         140.2606  142.7558  162.4844 C.ar    1  UNL1        0.0084
     25 C         141.6153  143.3257  162.1842 C.ar    1  UNL1       -0.0015
     26 C         142.0915  144.5495  162.9090 C.ar    1  UNL1       -0.0002
     27 C         141.2132  145.2035  163.9341 C.ar    1  UNL1        0.0005
     28 C         139.8586  144.6337  164.2343 C.ar    1  UNL1        0.0063
     29 C         138.7796  145.0580  165.1861 C.ar    1  UNL1        0.0075
     30 C         137.6365  144.0965  165.0495 C.ar    1  UNL1        0.0354
     31 S         138.0089  143.0778  164.0133 S.2     1  UNL1       -0.0867
     32 C         139.3822  143.4098  163.5095 C.ar    1  UNL1        0.0277
     33 C         138.8828  142.3830  160.9152 C.3     1  UNL1        0.0491
     34 C         138.7460  142.1038  159.4477 C.3     1  UNL1        0.0750
     35 N         139.9647  142.0713  158.5737 N.3     1  UNL1       -0.2702
     36 C         140.9093  143.2364  158.5603 C.3     1  UNL1        0.0897
     37 C         140.2387  140.8737  157.7131 C.3     1  UNL1        0.0897
@<TRIPOS>BOND
     1    13    14    1
     2    14     2    1
     3     2     3   ar
     4     3     4   ar
     5     4     5   ar
     6     5     6   ar
     7     6     7   ar
     8     7     8    1
     9     7     9   ar
    10     9    10   ar
    11    10    11   ar
    12    11    12   ar
    13     1    12    1
    14     1    15    1
    15    15    16   ar
    16    16    17   ar
    17    17    18   ar
    18    18    19   ar
    19    19    20   ar
    20     1    21    1
    21    21    22    1
    22    21    33    1
    23    33    34    1
    24    34    35    1
    25    35    36    1
    26    35    37    1
    27    21    24    1
    28    24    25   ar
    29    25    26   ar
    30    26    27   ar
    31    27    28   ar
    32    28    29   ar
    33    29    30   ar
    34    30    31   ar
    35    31    32   ar
    36    12     2   ar
    37    20    15   ar
    38    32    24   ar
    39    10     4   ar
    40    32    28   ar
    41    22    23    1
@<TRIPOS>MOLECULE
*****
 37 41 0 0 0
SMALL
GASTEIGER

@<TRIPOS>ATOM
      1 C         141.7694  142.3730  162.5822 C.3     1  UNL1        0.0760
      2 C         143.5836  142.5225  164.4360 C.ar    1  UNL1        0.1351
      3 C         143.9607  142.5201  165.8877 C.ar    1  UNL1        0.0366
      4 C         142.9006  142.3657  166.9378 C.ar    1  UNL1        0.0030
      5 C         143.2777  142.3632  168.3896 C.ar    1  UNL1        0.0006
      6 C         142.2177  142.2088  169.4395 C.ar    1  UNL1        0.0067
      7 C         140.7805  142.0568  169.0376 C.ar    1  UNL1        0.0346
      8 BR        139.7204  141.9023  170.0876 Br      1  UNL1       -0.0490
      9 C         140.4034  142.0592  167.5858 C.ar    1  UNL1        0.0067
     10 C         141.4635  142.2137  166.5359 C.ar    1  UNL1        0.0004
     11 C         141.0864  142.2161  165.0840 C.ar    1  UNL1       -0.0009
     12 C         142.1465  142.3705  164.0341 C.ar    1  UNL1        0.0181
     13 C         145.8015  141.7243  163.3433 C.3     1  UNL1        0.2525
     14 O         144.6437  142.6770  163.3859 O.3     1  UNL1       -0.4717
     15 C         141.1610  143.5985  161.9674 C.ar    1  UNL1       -0.0157
     16 C         141.0965  143.7359  160.4752 C.ar    1  UNL1       -0.0039
     17 C         140.4880  144.9614  159.8604 C.ar    1  UNL1       -0.0003
     18 C         139.9440  146.0494  160.7379 C.ar    1  UNL1       -0.0000
     19 C         140.0085  145.9121  162.2303 C.ar    1  UNL1       -0.0003
     20 C         140.6169  144.6866  162.8450 C.ar    1  UNL1       -0.0039
     21 C         142.0009  141.1500  161.7451 C.3     1  UNL1        0.1162
     22 O         143.2461  141.7699  161.1838 O.3     1  UNL1       -0.3820
     23 H         143.5861  141.2167  160.4631 H       1  UNL1        0.2107
     24 C         140.7557  140.5302  162.3065 C.ar    1  UNL1        0.0084
     25 C         139.4096  141.0604  161.9102 C.ar    1  UNL1       -0.0015
     26 C         138.1644  140.4406  162.4716 C.ar    1  UNL1       -0.0002
     27 C         138.2651  139.2905  163.4292 C.ar    1  UNL1        0.0005
     28 C         139.6111  138.7602  163.8255 C.ar    1  UNL1        0.0063
     29 C         140.0208  137.6460  164.7424 C.ar    1  UNL1        0.0075
     30 C         141.5192  137.5772  164.7477 C.ar    1  UNL1        0.0354
     31 S         142.0357  138.6489  163.8341 S.2     1  UNL1       -0.0867
     32 C         140.8564  139.3800  163.2641 C.ar    1  UNL1        0.0277
     33 C         142.2323  139.9270  160.9081 C.3     1  UNL1        0.0491
     34 C         143.3345  139.9120  159.8908 C.3     1  UNL1        0.0750
     35 N         143.1370  140.5775  158.5611 N.3     1  UNL1       -0.2702
     36 C         144.3199  141.0989  157.8003 C.3     1  UNL1        0.0897
     37 C         141.7566  140.7217  157.9922 C.3     1  UNL1        0.0897
@<TRIPOS>BOND
     1    13    14    1
     2    14     2    1
     3     2     3   ar
     4     3     4   ar
     5     4     5   ar
     6     5     6   ar
     7     6     7   ar
     8     7     8    1
     9     7     9   ar
    10     9    10   ar
    11    10    11   ar
    12    11    12   ar
    13     1    12    1
    14     1    15    1
    15    15    16   ar
    16    16    17   ar
    17    17    18   ar
    18    18    19   ar
    19    19    20   ar
    20     1    21    1
    21    21    22    1
    22    21    33    1
    23    33    34    1
    24    34    35    1
    25    35    36    1
    26    35    37    1
    27    21    24    1
    28    24    25   ar
    29    25    26   ar
    30    26    27   ar
    31    27    28   ar
    32    28    29   ar
    33    29    30   ar
    34    30    31   ar
    35    31    32   ar
    36    12     2   ar
    37    20    15   ar
    38    32    24   ar
    39    10     4   ar
    40    32    28   ar
    41    22    23    1
@<TRIPOS>MOLECULE
*****
 37 41 0 0 0
SMALL
GASTEIGER

@<TRIPOS>ATOM
      1 C         141.5166  142.0080  164.2973 C.3     1  UNL1        0.0760
      2 C         143.5000  142.8182  162.8276 C.ar    1  UNL1        0.1351
      3 C         144.2388  142.8073  161.5223 C.ar    1  UNL1        0.0366
      4 C         143.7331  141.9754  160.3811 C.ar    1  UNL1        0.0030
      5 C         144.4720  141.9646  159.0758 C.ar    1  UNL1        0.0006
      6 C         143.9663  141.1327  157.9347 C.ar    1  UNL1        0.0067
      7 C         142.7217  140.3117  158.0989 C.ar    1  UNL1        0.0346
      8 BR        142.2160  139.4798  156.9577 Br      1  UNL1       -0.0490
      9 C         141.9829  140.3225  159.4042 C.ar    1  UNL1        0.0067
     10 C         142.4886  141.1544  160.5453 C.ar    1  UNL1        0.0004
     11 C         141.7497  141.1653  161.8507 C.ar    1  UNL1       -0.0009
     12 C         142.2554  141.9971  162.9919 C.ar    1  UNL1        0.0181
     13 C         143.7185  145.1218  164.0091 C.3     1  UNL1        0.2525
     14 O         144.0057  143.6501  163.9688 O.3     1  UNL1       -0.4717
     15 C         140.1892  142.6988  164.4021 C.ar    1  UNL1       -0.0157
     16 C         139.0079  142.1728  163.6419 C.ar    1  UNL1       -0.0039
     17 C         137.6806  142.8636  163.7467 C.ar    1  UNL1       -0.0003
     18 C         137.5345  144.0803  164.6116 C.ar    1  UNL1       -0.0000
     19 C         138.7159  144.6064  165.3718 C.ar    1  UNL1       -0.0003
     20 C         140.0432  143.9156  165.2670 C.ar    1  UNL1       -0.0039
     21 C         142.1051  141.3281  165.4978 C.3     1  UNL1        0.1162
     22 O         142.5163  142.6604  166.0508 O.3     1  UNL1       -0.3820
     23 H         143.0720  142.5276  166.8346 H       1  UNL1        0.2107
     24 C         141.6938  139.9958  164.9449 C.ar    1  UNL1        0.0084
     25 C         142.5896  139.2746  163.9817 C.ar    1  UNL1       -0.0015
     26 C         142.1784  137.9423  163.4288 C.ar    1  UNL1       -0.0002
     27 C         140.8714  137.3311  163.8390 C.ar    1  UNL1        0.0005
     28 C         139.9757  138.0522  164.8021 C.ar    1  UNL1        0.0063
     29 C         138.6391  137.7008  165.3854 C.ar    1  UNL1        0.0075
     30 C         138.2243  138.8160  166.2988 C.ar    1  UNL1        0.0354
     31 S         139.3045  139.8566  166.2800 S.2     1  UNL1       -0.0867
     32 C         140.3869  139.3846  165.3551 C.ar    1  UNL1        0.0277
     33 C         142.6936  140.6482  166.6984 C.3     1  UNL1        0.0491
     34 C         142.6848  141.3380  168.0304 C.3     1  UNL1        0.0750
     35 N         141.4358  141.3489  168.8611 N.3     1  UNL1       -0.2702
     36 C         140.5807  142.5801  168.9136 C.3     1  UNL1        0.0897
     37 C         141.0420  140.1285  169.6393 C.3     1  UNL1        0.0897
@<TRIPOS>BOND
     1    13    14    1
     2    14     2    1
     3     2     3   ar
     4     3     4   ar
     5     4     5   ar
     6     5     6   ar
     7     6     7   ar
     8     7     8    1
     9     7     9   ar
    10     9    10   ar
    11    10    11   ar
    12    11    12   ar
    13     1    12    1
    14     1    15    1
    15    15    16   ar
    16    16    17   ar
    17    17    18   ar
    18    18    19   ar
    19    19    20   ar
    20     1    21    1
    21    21    22    1
    22    21    33    1
    23    33    34    1
    24    34    35    1
    25    35    36    1
    26    35    37    1
    27    21    24    1
    28    24    25   ar
    29    25    26   ar
    30    26    27   ar
    31    27    28   ar
    32    28    29   ar
    33    29    30   ar
    34    30    31   ar
    35    31    32   ar
    36    12     2   ar
    37    20    15   ar
    38    32    24   ar
    39    10     4   ar
    40    32    28   ar
    41    22    23    1
@<TRIPOS>MOLECULE
*****
 37 41 0 0 0
SMALL
GASTEIGER

@<TRIPOS>ATOM
      1 C         140.6360  141.7952  165.2799 C.3     1  UNL1        0.0760
      2 C         139.7961  144.0779  164.3668 C.ar    1  UNL1        0.1351
      3 C         139.6516  145.0499  163.2335 C.ar    1  UNL1        0.0366
      4 C         140.2025  144.7112  161.8800 C.ar    1  UNL1        0.0030
      5 C         140.0579  145.6832  160.7468 C.ar    1  UNL1        0.0006
      6 C         140.6087  145.3445  159.3934 C.ar    1  UNL1        0.0067
      7 C         141.3041  144.0338  159.1732 C.ar    1  UNL1        0.0346
      8 BR        141.8550  143.6951  157.8196 Br      1  UNL1       -0.0490
      9 C         141.4487  143.0618  160.3064 C.ar    1  UNL1        0.0067
     10 C         140.8978  143.4005  161.6598 C.ar    1  UNL1        0.0004
     11 C         141.0423  142.4285  162.7932 C.ar    1  UNL1       -0.0009
     12 C         140.4915  142.7672  164.1466 C.ar    1  UNL1        0.0181
     13 C         137.9380  145.1426  165.8377 C.3     1  UNL1        0.2525
     14 O         139.2453  144.4166  165.7203 O.3     1  UNL1       -0.4717
     15 C         139.9496  140.4629  165.2175 C.ar    1  UNL1       -0.0157
     16 C         139.0601  140.0241  166.3427 C.ar    1  UNL1       -0.0039
     17 C         138.3736  138.6919  166.2803 C.ar    1  UNL1       -0.0003
     18 C         138.5766  137.7985  165.0926 C.ar    1  UNL1       -0.0000
     19 C         139.4661  138.2373  163.9673 C.ar    1  UNL1       -0.0003
     20 C         140.1526  139.5695  164.0297 C.ar    1  UNL1       -0.0039
     21 C         141.4670  142.1554  166.4756 C.3     1  UNL1        0.1162
     22 O         140.2201  142.3158  167.2938 O.3     1  UNL1       -0.3820
     23 H         140.4473  142.6906  168.1591 H       1  UNL1        0.2107
     24 C         142.7139  141.9950  165.6574 C.ar    1  UNL1        0.0084
     25 C         143.3026  143.1782  164.9476 C.ar    1  UNL1       -0.0015
     26 C         144.5495  143.0178  164.1294 C.ar    1  UNL1       -0.0002
     27 C         145.2077  141.6743  164.0208 C.ar    1  UNL1        0.0005
     28 C         144.6190  140.4912  164.7305 C.ar    1  UNL1        0.0063
     29 C         145.0425  139.0543  164.8078 C.ar    1  UNL1        0.0075
     30 C         144.0573  138.3266  165.6738 C.ar    1  UNL1        0.0354
     31 S         143.0249  139.3137  166.1317 S.2     1  UNL1       -0.0867
     32 C         143.3721  140.6515  165.5488 C.ar    1  UNL1        0.0277
     33 C         142.2980  142.5156  167.6713 C.3     1  UNL1        0.0491
     34 C         141.7259  142.3785  169.0511 C.3     1  UNL1        0.0750
     35 N         141.7530  141.0491  169.7455 N.3     1  UNL1       -0.2702
     36 C         143.0552  140.4801  170.2255 C.3     1  UNL1        0.0897
     37 C         140.4779  140.2888  169.9599 C.3     1  UNL1        0.0897
@<TRIPOS>BOND
     1    13    14    1
     2    14     2    1
     3     2     3   ar
     4     3     4   ar
     5     4     5   ar
     6     5     6   ar
     7     6     7   ar
     8     7     8    1
     9     7     9   ar
    10     9    10   ar
    11    10    11   ar
    12    11    12   ar
    13     1    12    1
    14     1    15    1
    15    15    16   ar
    16    16    17   ar
    17    17    18   ar
    18    18    19   ar
    19    19    20   ar
    20     1    21    1
    21    21    22    1
    22    21    33    1
    23    33    34    1
    24    34    35    1
    25    35    36    1
    26    35    37    1
    27    21    24    1
    28    24    25   ar
    29    25    26   ar
    30    26    27   ar
    31    27    28   ar
    32    28    29   ar
    33    29    30   ar
    34    30    31   ar
    35    31    32   ar
    36    12     2   ar
    37    20    15   ar
    38    32    24   ar
    39    10     4   ar
    40    32    28   ar
    41    22    23    1
@<TRIPOS>MOLECULE
*****
 37 41 0 0 0
SMALL
GASTEIGER

@<TRIPOS>ATOM
      1 C         140.8992  140.8005  162.8488 C.3     1  UNL1        0.0760
      2 C         139.2972  139.7282  164.5906 C.ar    1  UNL1        0.1351
      3 C         138.8619  139.5433  166.0141 C.ar    1  UNL1        0.0366
      4 C         139.5933  140.2458  167.1194 C.ar    1  UNL1        0.0030
      5 C         139.1580  140.0609  168.5428 C.ar    1  UNL1        0.0006
      6 C         139.8894  140.7634  169.6480 C.ar    1  UNL1        0.0067
      7 C         141.0561  141.6508  169.3298 C.ar    1  UNL1        0.0346
      8 BR        141.7875  142.3533  170.4351 Br      1  UNL1       -0.0490
      9 C         141.4914  141.8357  167.9063 C.ar    1  UNL1        0.0067
     10 C         140.7600  141.1332  166.8011 C.ar    1  UNL1        0.0004
     11 C         141.1953  141.3181  165.3776 C.ar    1  UNL1       -0.0009
     12 C         140.4639  140.6156  164.2724 C.ar    1  UNL1        0.0181
     13 C         138.8250  137.5723  163.2197 C.3     1  UNL1        0.2525
     14 O         138.5658  139.0257  163.4853 O.3     1  UNL1       -0.4717
     15 C         141.7215  139.7438  162.1727 C.ar    1  UNL1       -0.0157
     16 C         141.2097  139.0750  160.9315 C.ar    1  UNL1       -0.0039
     17 C         142.0320  138.0183  160.2555 C.ar    1  UNL1       -0.0003
     18 C         143.3662  137.6303  160.8206 C.ar    1  UNL1       -0.0000
     19 C         143.8781  138.2991  162.0618 C.ar    1  UNL1       -0.0003
     20 C         143.0558  139.3559  162.7379 C.ar    1  UNL1       -0.0039
     21 C         140.5122  142.0421  162.1015 C.3     1  UNL1        0.1162
     22 O         139.0677  141.6491  162.1966 O.3     1  UNL1       -0.3820
     23 H         138.5327  142.2509  161.6558 H       1  UNL1        0.2107
     24 C         141.9566  142.4351  162.0064 C.ar    1  UNL1        0.0084
     25 C         142.6897  142.8995  163.2299 C.ar    1  UNL1       -0.0015
     26 C         144.1341  143.2926  163.1348 C.ar    1  UNL1       -0.0002
     27 C         144.8456  143.2212  161.8162 C.ar    1  UNL1        0.0005
     28 C         144.1126  142.7568  160.5927 C.ar    1  UNL1        0.0063
     29 C         144.5471  142.5841  159.1674 C.ar    1  UNL1        0.0075
     30 C         143.3712  142.0843  158.3817 C.ar    1  UNL1        0.0354
     31 S         142.2099  141.9481  159.3213 S.2     1  UNL1       -0.0867
     32 C         142.6681  142.3638  160.6877 C.ar    1  UNL1        0.0277
     33 C         140.1252  143.2837  161.3541 C.3     1  UNL1        0.0491
     34 C         139.8335  144.5500  162.1034 C.3     1  UNL1        0.0750
     35 N         139.0254  144.5049  163.3664 N.3     1  UNL1       -0.2702
     36 C         139.7057  144.6336  164.6970 C.3     1  UNL1        0.0897
     37 C         137.5371  144.3312  163.2986 C.3     1  UNL1        0.0897
@<TRIPOS>BOND
     1    13    14    1
     2    14     2    1
     3     2     3   ar
     4     3     4   ar
     5     4     5   ar
     6     5     6   ar
     7     6     7   ar
     8     7     8    1
     9     7     9   ar
    10     9    10   ar
    11    10    11   ar
    12    11    12   ar
    13     1    12    1
    14     1    15    1
    15    15    16   ar
    16    16    17   ar
    17    17    18   ar
    18    18    19   ar
    19    19    20   ar
    20     1    21    1
    21    21    22    1
    22    21    33    1
    23    33    34    1
    24    34    35    1
    25    35    36    1
    26    35    37    1
    27    21    24    1
    28    24    25   ar
    29    25    26   ar
    30    26    27   ar
    31    27    28   ar
    32    28    29   ar
    33    29    30   ar
    34    30    31   ar
    35    31    32   ar
    36    12     2   ar
    37    20    15   ar
    38    32    24   ar
    39    10     4   ar
    40    32    28   ar
    41    22    23    1
@<TRIPOS>MOLECULE
*****
 37 41 0 0 0
SMALL
GASTEIGER

@<TRIPOS>ATOM
      1 C         142.1566  140.8979  164.6092 C.3     1  UNL1        0.0760
      2 C         144.2384  141.1515  163.0756 C.ar    1  UNL1        0.1351
      3 C         144.8405  141.5288  161.7546 C.ar    1  UNL1        0.0366
      4 C         143.9629  142.0298  160.6460 C.ar    1  UNL1        0.0030
      5 C         144.5650  142.4071  159.3250 C.ar    1  UNL1        0.0006
      6 C         143.6875  142.9081  158.2166 C.ar    1  UNL1        0.0067
      7 C         142.2077  143.0318  158.4291 C.ar    1  UNL1        0.0346
      8 BR        141.3302  143.5329  157.3205 Br      1  UNL1       -0.0490
      9 C         141.6056  142.6546  159.7501 C.ar    1  UNL1        0.0067
     10 C         142.4832  142.1536  160.8585 C.ar    1  UNL1        0.0004
     11 C         141.8811  141.7763  162.1796 C.ar    1  UNL1       -0.0009
     12 C         142.7587  141.2752  163.2881 C.ar    1  UNL1        0.0181
     13 C         145.2050  139.1794  164.4636 C.3     1  UNL1        0.2525
     14 O         145.1160  140.6504  164.1842 O.3     1  UNL1       -0.4717
     15 C         141.2160  139.7330  164.6994 C.ar    1  UNL1       -0.0157
     16 C         139.9613  139.8434  165.5139 C.ar    1  UNL1       -0.0039
     17 C         139.0207  138.6784  165.6041 C.ar    1  UNL1       -0.0003
     18 C         139.3348  137.4031  164.8797 C.ar    1  UNL1       -0.0000
     19 C         140.5895  137.2926  164.0651 C.ar    1  UNL1       -0.0003
     20 C         141.5301  138.4576  163.9749 C.ar    1  UNL1       -0.0039
     21 C         142.4951  141.6856  165.8400 C.3     1  UNL1        0.1162
     22 O         142.7687  140.4104  166.5808 O.3     1  UNL1       -0.3820
     23 H         142.9102  140.6062  167.5203 H       1  UNL1        0.2107
     24 C         142.2215  142.9608  165.0992 C.ar    1  UNL1        0.0084
     25 C         143.3593  143.7610  164.5377 C.ar    1  UNL1       -0.0015
     26 C         143.0857  145.0362  163.7969 C.ar    1  UNL1       -0.0002
     27 C         141.6744  145.5114  163.6175 C.ar    1  UNL1        0.0005
     28 C         140.5365  144.7113  164.1789 C.ar    1  UNL1        0.0063
     29 C         139.0523  144.9269  164.1598 C.ar    1  UNL1        0.0075
     30 C         138.4085  143.7849  164.8888 C.ar    1  UNL1        0.0354
     31 S         139.4949  142.8635  165.3585 S.2     1  UNL1       -0.0867
     32 C         140.8101  143.4360  164.9198 C.ar    1  UNL1        0.0277
     33 C         142.8336  142.4732  167.0708 C.3     1  UNL1        0.0491
     34 C         142.2126  142.1112  168.3874 C.3     1  UNL1        0.0750
     35 N         143.0767  141.6443  169.5211 N.3     1  UNL1       -0.2702
     36 C         142.8013  140.3252  170.1801 C.3     1  UNL1        0.0897
     37 C         144.2161  142.4964  169.9959 C.3     1  UNL1        0.0897
@<TRIPOS>BOND
     1    13    14    1
     2    14     2    1
     3     2     3   ar
     4     3     4   ar
     5     4     5   ar
     6     5     6   ar
     7     6     7   ar
     8     7     8    1
     9     7     9   ar
    10     9    10   ar
    11    10    11   ar
    12    11    12   ar
    13     1    12    1
    14     1    15    1
    15    15    16   ar
    16    16    17   ar
    17    17    18   ar
    18    18    19   ar
    19    19    20   ar
    20     1    21    1
    21    21    22    1
    22    21    33    1
    23    33    34    1
    24    34    35    1
    25    35    36    1
    26    35    37    1
    27    21    24    1
    28    24    25   ar
    29    25    26   ar
    30    26    27   ar
    31    27    28   ar
    32    28    29   ar
    33    29    30   ar
    34    30    31   ar
    35    31    32   ar
    36    12     2   ar
    37    20    15   ar
    38    32    24   ar
    39    10     4   ar
    40    32    28   ar
    41    22    23    1
