@<TRIPOS>MOLECULE
*****
 20 22 0 0 0
SMALL
GASTEIGER

@<TRIPOS>ATOM
      1 C         140.2217  141.1190  166.4890 C.3     1  UNL1        0.0310
      2 C         140.2747  142.2792  165.5397 C.ar    1  UNL1       -0.0212
      3 C         139.0202  142.7610  164.8734 C.ar    1  UNL1        0.0051
      4 C         139.0732  143.9211  163.9241 C.ar    1  UNL1        0.0629
      5 BR        137.8186  144.4030  163.2578 Br      1  UNL1       -0.0463
      6 C         140.3807  144.5994  163.6409 C.ar    1  UNL1        0.1145
      7 C         141.6354  144.1176  164.3072 C.ar    1  UNL1        0.0289
      8 C         142.9429  144.7959  164.0241 C.ar    1  UNL1        0.0026
      9 C         144.1975  144.3140  164.6903 C.ar    1  UNL1        0.0001
     10 C         144.1445  143.1539  165.6396 C.ar    1  UNL1       -0.0000
     11 C         142.8369  142.4756  165.9228 C.ar    1  UNL1       -0.0002
     12 C         141.5824  142.9575  165.2565 C.ar    1  UNL1       -0.0014
     13 N         140.4337  145.7596  162.6916 N.pl3   1  UNL1       -0.2047
     14 H         140.3255  146.6778  163.0299 H       1  UNL1        0.2512
     15 C         140.6516  145.5207  161.2269 C.cat   1  UNL1        0.3709
     16 N         139.6469  145.7508  160.1370 N.2     1  UNL1       -0.0977
     17 C         140.2868  145.3822  158.8314 C.3     1  UNL1        0.2596
     18 C         141.6869  144.9242  159.1143 C.3     1  UNL1        0.2107
     19 N         141.9123  145.0099  160.5948 N.pl3   1  UNL1       -0.2215
     20 H         142.7421  144.7724  161.0685 H       1  UNL1        0.2454
@<TRIPOS>BOND
     1     1     2    1
     2     2     3   ar
     3     3     4   ar
     4     4     5    1
     5     4     6   ar
     6     6    13    1
     7    13    15    1
     8    15    16    2
     9    16    17    1
    10    17    18    1
    11    18    19    1
    12     6     7   ar
    13     7     8   ar
    14     8     9   ar
    15     9    10   ar
    16    10    11   ar
    17    11    12   ar
    18    12     2   ar
    19    19    15    1
    20    12     7   ar
    21    13    14    1
    22    19    20    1
@<TRIPOS>MOLECULE
*****
 20 22 0 0 0
SMALL
GASTEIGER

@<TRIPOS>ATOM
      1 C         138.4656  140.2702  170.0835 C.3     1  UNL1        0.0310
      2 C         139.6111  140.4863  169.1395 C.ar    1  UNL1       -0.0212
      3 C         140.8189  141.2538  169.5890 C.ar    1  UNL1        0.0051
      4 C         141.9644  141.4700  168.6450 C.ar    1  UNL1        0.0629
      5 BR        143.1722  142.2375  169.0946 Br      1  UNL1       -0.0463
      6 C         141.9021  140.9186  167.2514 C.ar    1  UNL1        0.1145
      7 C         140.6942  140.1510  166.8018 C.ar    1  UNL1        0.0289
      8 C         140.6319  139.5996  165.4083 C.ar    1  UNL1        0.0026
      9 C         139.4242  138.8320  164.9587 C.ar    1  UNL1        0.0001
     10 C         138.2787  138.6159  165.9028 C.ar    1  UNL1       -0.0000
     11 C         138.3410  139.1673  167.2963 C.ar    1  UNL1       -0.0002
     12 C         139.5487  139.9348  167.7458 C.ar    1  UNL1       -0.0014
     13 N         143.0475  141.1347  166.3074 N.pl3   1  UNL1       -0.2047
     14 H         143.7559  140.4554  166.2292 H       1  UNL1        0.2512
     15 C         143.1138  142.3857  165.4825 C.cat   1  UNL1        0.3709
     16 N         144.3242  143.2499  165.2871 N.2     1  UNL1       -0.0977
     17 C         143.9398  144.3905  164.3920 C.3     1  UNL1        0.2596
     18 C         142.4918  144.2313  164.0343 C.3     1  UNL1        0.2107
     19 N         141.9813  142.9923  164.7083 N.pl3   1  UNL1       -0.2215
     20 H         141.0640  142.6392  164.6523 H       1  UNL1        0.2454
@<TRIPOS>BOND
     1     1     2    1
     2     2     3   ar
     3     3     4   ar
     4     4     5    1
     5     4     6   ar
     6     6    13    1
     7    13    15    1
     8    15    16    2
     9    16    17    1
    10    17    18    1
    11    18    19    1
    12     6     7   ar
    13     7     8   ar
    14     8     9   ar
    15     9    10   ar
    16    10    11   ar
    17    11    12   ar
    18    12     2   ar
    19    19    15    1
    20    12     7   ar
    21    13    14    1
    22    19    20    1
@<TRIPOS>MOLECULE
*****
 20 22 0 0 0
SMALL
GASTEIGER

@<TRIPOS>ATOM
      1 C         140.7752  141.9864  167.4958 C.3     1  UNL1        0.0310
      2 C         139.9672  141.4109  166.3707 C.ar    1  UNL1       -0.0212
      3 C         139.8557  139.9236  166.2116 C.ar    1  UNL1        0.0051
      4 C         139.0476  139.3481  165.0865 C.ar    1  UNL1        0.0629
      5 BR        138.9362  137.8607  164.9274 Br      1  UNL1       -0.0463
      6 C         138.3510  140.2600  164.1205 C.ar    1  UNL1        0.1145
      7 C         138.4625  141.7474  164.2796 C.ar    1  UNL1        0.0289
      8 C         137.7659  142.6593  163.3135 C.ar    1  UNL1        0.0026
      9 C         137.8773  144.1466  163.4726 C.ar    1  UNL1        0.0001
     10 C         138.6854  144.7221  164.5977 C.ar    1  UNL1       -0.0000
     11 C         139.3820  143.8102  165.5638 C.ar    1  UNL1       -0.0002
     12 C         139.2705  142.3229  165.4047 C.ar    1  UNL1       -0.0014
     13 N         137.5430  139.6845  162.9954 N.pl3   1  UNL1       -0.2047
     14 H         136.6006  139.4398  163.1411 H       1  UNL1        0.2512
     15 C         138.1707  139.4819  161.6482 C.cat   1  UNL1        0.3709
     16 N         137.9084  140.3032  160.4208 N.2     1  UNL1       -0.0977
     17 C         138.7466  139.7513  159.3059 C.3     1  UNL1        0.2596
     18 C         139.5270  138.5889  159.8444 C.3     1  UNL1        0.2107
     19 N         139.1711  138.4225  161.2920 N.pl3   1  UNL1       -0.2215
     20 H         139.5308  137.7380  161.9014 H       1  UNL1        0.2454
@<TRIPOS>BOND
     1     1     2    1
     2     2     3   ar
     3     3     4   ar
     4     4     5    1
     5     4     6   ar
     6     6    13    1
     7    13    15    1
     8    15    16    2
     9    16    17    1
    10    17    18    1
    11    18    19    1
    12     6     7   ar
    13     7     8   ar
    14     8     9   ar
    15     9    10   ar
    16    10    11   ar
    17    11    12   ar
    18    12     2   ar
    19    19    15    1
    20    12     7   ar
    21    13    14    1
    22    19    20    1
@<TRIPOS>MOLECULE
*****
 20 22 0 0 0
SMALL
GASTEIGER

@<TRIPOS>ATOM
      1 C         137.8084  138.9744  166.5824 C.3     1  UNL1        0.0310
      2 C         139.2784  139.0098  166.2861 C.ar    1  UNL1       -0.0212
      3 C         139.8001  138.4242  165.0075 C.ar    1  UNL1        0.0051
      4 C         141.2701  138.4595  164.7113 C.ar    1  UNL1        0.0629
      5 BR        141.7918  137.8739  163.4326 Br      1  UNL1       -0.0463
      6 C         142.2184  139.0805  165.6936 C.ar    1  UNL1        0.1145
      7 C         141.6968  139.6661  166.9723 C.ar    1  UNL1        0.0289
      8 C         142.6451  140.2870  167.9547 C.ar    1  UNL1        0.0026
      9 C         142.1234  140.8725  169.2333 C.ar    1  UNL1        0.0001
     10 C         140.6534  140.8372  169.5296 C.ar    1  UNL1       -0.0000
     11 C         139.7051  140.2163  168.5472 C.ar    1  UNL1       -0.0002
     12 C         140.2267  139.6307  167.2686 C.ar    1  UNL1       -0.0014
     13 N         143.6885  139.1158  165.3973 N.pl3   1  UNL1       -0.2047
     14 H         144.2626  138.3619  165.6641 H       1  UNL1        0.2512
     15 C         144.2837  140.2998  164.6947 C.cat   1  UNL1        0.3709
     16 N         143.9818  141.7403  164.9841 N.2     1  UNL1       -0.0977
     17 C         144.7968  142.5820  164.0475 C.3     1  UNL1        0.2596
     18 C         145.6024  141.6616  163.1791 C.3     1  UNL1        0.2107
     19 N         145.2853  140.2512  163.5791 N.pl3   1  UNL1       -0.2215
     20 H         145.6674  139.4366  163.1797 H       1  UNL1        0.2454
@<TRIPOS>BOND
     1     1     2    1
     2     2     3   ar
     3     3     4   ar
     4     4     5    1
     5     4     6   ar
     6     6    13    1
     7    13    15    1
     8    15    16    2
     9    16    17    1
    10    17    18    1
    11    18    19    1
    12     6     7   ar
    13     7     8   ar
    14     8     9   ar
    15     9    10   ar
    16    10    11   ar
    17    11    12   ar
    18    12     2   ar
    19    19    15    1
    20    12     7   ar
    21    13    14    1
    22    19    20    1
@<TRIPOS>MOLECULE
*****
 20 22 0 0 0
SMALL
GASTEIGER

@<TRIPOS>ATOM
      1 C         143.6529  138.2386  166.3203 C.3     1  UNL1        0.0310
      2 C         142.2912  138.8007  166.0380 C.ar    1  UNL1       -0.0212
      3 C         141.3798  138.1076  165.0690 C.ar    1  UNL1        0.0051
      4 C         140.0180  138.6698  164.7867 C.ar    1  UNL1        0.0629
      5 BR        139.1066  137.9766  163.8177 Br      1  UNL1       -0.0463
      6 C         139.5677  139.9251  165.4732 C.ar    1  UNL1        0.1145
      7 C         140.4792  140.6183  166.4422 C.ar    1  UNL1        0.0289
      8 C         140.0289  141.8735  167.1288 C.ar    1  UNL1        0.0026
      9 C         140.9403  142.5667  168.0978 C.ar    1  UNL1        0.0001
     10 C         142.3020  142.0045  168.3801 C.ar    1  UNL1       -0.0000
     11 C         142.7523  140.7492  167.6935 C.ar    1  UNL1       -0.0002
     12 C         141.8409  140.0561  166.7246 C.ar    1  UNL1       -0.0014
     13 N         138.2060  140.4872  165.1909 N.pl3   1  UNL1       -0.2047
     14 H         137.4201  140.1375  165.6697 H       1  UNL1        0.2512
     15 C         138.0418  141.5823  164.1790 C.cat   1  UNL1        0.3709
     16 N         138.0992  141.4216  162.6888 N.2     1  UNL1       -0.0977
     17 C         137.8841  142.7703  162.0685 C.3     1  UNL1        0.2596
     18 C         137.6938  143.7645  163.1754 C.3     1  UNL1        0.2107
     19 N         137.7912  143.0303  164.4798 N.pl3   1  UNL1       -0.2215
     20 H         137.7057  143.4288  165.3760 H       1  UNL1        0.2454
@<TRIPOS>BOND
     1     1     2    1
     2     2     3   ar
     3     3     4   ar
     4     4     5    1
     5     4     6   ar
     6     6    13    1
     7    13    15    1
     8    15    16    2
     9    16    17    1
    10    17    18    1
    11    18    19    1
    12     6     7   ar
    13     7     8   ar
    14     8     9   ar
    15     9    10   ar
    16    10    11   ar
    17    11    12   ar
    18    12     2   ar
    19    19    15    1
    20    12     7   ar
    21    13    14    1
    22    19    20    1
@<TRIPOS>MOLECULE
*****
 20 22 0 0 0
SMALL
GASTEIGER

@<TRIPOS>ATOM
      1 C         138.0739  138.3585  166.3381 C.3     1  UNL1        0.0310
      2 C         138.5267  139.7443  165.9852 C.ar    1  UNL1       -0.0212
      3 C         138.1007  140.3649  164.6878 C.ar    1  UNL1        0.0051
      4 C         138.5535  141.7507  164.3349 C.ar    1  UNL1        0.0629
      5 BR        138.1274  142.3714  163.0375 Br      1  UNL1       -0.0463
      6 C         139.4324  142.5158  165.2794 C.ar    1  UNL1        0.1145
      7 C         139.8586  141.8951  166.5768 C.ar    1  UNL1        0.0289
      8 C         140.7375  142.6602  167.5213 C.ar    1  UNL1        0.0026
      9 C         141.1635  142.0396  168.8186 C.ar    1  UNL1        0.0001
     10 C         140.7107  140.6538  169.1715 C.ar    1  UNL1       -0.0000
     11 C         139.8317  139.8887  168.2271 C.ar    1  UNL1       -0.0002
     12 C         139.4057  140.5094  166.9297 C.ar    1  UNL1       -0.0014
     13 N         139.8853  143.9016  164.9265 N.pl3   1  UNL1       -0.2047
     14 H         139.2863  144.6683  165.0764 H       1  UNL1        0.2512
     15 C         141.2508  144.1191  164.3451 C.cat   1  UNL1        0.3709
     16 N         142.2861  143.0604  164.1057 N.2     1  UNL1       -0.0977
     17 C         143.4959  143.7205  163.5137 C.3     1  UNL1        0.2596
     18 C         143.2084  145.1873  163.3874 C.3     1  UNL1        0.2107
     19 N         141.8209  145.4336  163.9012 N.pl3   1  UNL1       -0.2215
     20 H         141.3645  146.3051  163.9402 H       1  UNL1        0.2454
@<TRIPOS>BOND
     1     1     2    1
     2     2     3   ar
     3     3     4   ar
     4     4     5    1
     5     4     6   ar
     6     6    13    1
     7    13    15    1
     8    15    16    2
     9    16    17    1
    10    17    18    1
    11    18    19    1
    12     6     7   ar
    13     7     8   ar
    14     8     9   ar
    15     9    10   ar
    16    10    11   ar
    17    11    12   ar
    18    12     2   ar
    19    19    15    1
    20    12     7   ar
    21    13    14    1
    22    19    20    1
@<TRIPOS>MOLECULE
*****
 20 22 0 0 0
SMALL
GASTEIGER

@<TRIPOS>ATOM
      1 C         137.7665  138.4274  166.8279 C.3     1  UNL1        0.0310
      2 C         139.0603  139.1783  166.7162 C.ar    1  UNL1       -0.0212
      3 C         139.3644  140.2945  167.6709 C.ar    1  UNL1        0.0051
      4 C         140.6581  141.0453  167.5593 C.ar    1  UNL1        0.0629
      5 BR        140.9623  142.1616  168.5141 Br      1  UNL1       -0.0463
      6 C         141.6477  140.6800  166.4929 C.ar    1  UNL1        0.1145
      7 C         141.3436  139.5637  165.5381 C.ar    1  UNL1        0.0289
      8 C         142.3332  139.1983  164.4718 C.ar    1  UNL1        0.0026
      9 C         142.0291  138.0821  163.5171 C.ar    1  UNL1        0.0001
     10 C         140.7353  137.3313  163.6287 C.ar    1  UNL1       -0.0000
     11 C         139.7457  137.6966  164.6951 C.ar    1  UNL1       -0.0002
     12 C         140.0499  138.8128  165.6498 C.ar    1  UNL1       -0.0014
     13 N         142.9415  141.4308  166.3813 N.pl3   1  UNL1       -0.2047
     14 H         143.7311  141.1285  166.8855 H       1  UNL1        0.2512
     15 C         143.0321  142.6422  165.5014 C.cat   1  UNL1        0.3709
     16 N         141.8921  143.2900  164.7728 N.2     1  UNL1       -0.0977
     17 C         142.4340  144.4666  164.0166 C.3     1  UNL1        0.2596
     18 C         143.9090  144.5461  164.2779 C.3     1  UNL1        0.2107
     19 N         144.2786  143.4185  165.1955 N.pl3   1  UNL1       -0.2215
     20 H         145.1808  143.2224  165.5370 H       1  UNL1        0.2454
@<TRIPOS>BOND
     1     1     2    1
     2     2     3   ar
     3     3     4   ar
     4     4     5    1
     5     4     6   ar
     6     6    13    1
     7    13    15    1
     8    15    16    2
     9    16    17    1
    10    17    18    1
    11    18    19    1
    12     6     7   ar
    13     7     8   ar
    14     8     9   ar
    15     9    10   ar
    16    10    11   ar
    17    11    12   ar
    18    12     2   ar
    19    19    15    1
    20    12     7   ar
    21    13    14    1
    22    19    20    1
@<TRIPOS>MOLECULE
*****
 20 22 0 0 0
SMALL
GASTEIGER

@<TRIPOS>ATOM
      1 C         137.8724  143.8574  163.7666 C.3     1  UNL1        0.0310
      2 C         139.0095  143.1166  164.4055 C.ar    1  UNL1       -0.0212
      3 C         138.7492  141.8413  165.1511 C.ar    1  UNL1        0.0051
      4 C         139.8863  141.1005  165.7900 C.ar    1  UNL1        0.0629
      5 BR        139.6259  139.8252  166.5356 Br      1  UNL1       -0.0463
      6 C         141.2837  141.6350  165.6832 C.ar    1  UNL1        0.1145
      7 C         141.5441  142.9103  164.9376 C.ar    1  UNL1        0.0289
      8 C         142.9416  143.4447  164.8309 C.ar    1  UNL1        0.0026
      9 C         143.2020  144.7199  164.0853 C.ar    1  UNL1        0.0001
     10 C         142.0648  145.4607  163.4465 C.ar    1  UNL1       -0.0000
     11 C         140.6674  144.9263  163.5532 C.ar    1  UNL1       -0.0002
     12 C         140.4070  143.6511  164.2988 C.ar    1  UNL1       -0.0014
     13 N         142.4209  140.8941  166.3221 N.pl3   1  UNL1       -0.2047
     14 H         142.9129  140.2118  165.8108 H       1  UNL1        0.2512
     15 C         142.8082  141.1929  167.7401 C.cat   1  UNL1        0.3709
     16 N         142.6628  140.2634  168.9084 N.2     1  UNL1       -0.0977
     17 C         143.1737  140.9697  170.1291 C.3     1  UNL1        0.2596
     18 C         143.6349  142.3358  169.7152 C.3     1  UNL1        0.2107
     19 N         143.4090  142.4737  168.2387 N.pl3   1  UNL1       -0.2215
     20 H         143.6183  143.2658  167.6928 H       1  UNL1        0.2454
@<TRIPOS>BOND
     1     1     2    1
     2     2     3   ar
     3     3     4   ar
     4     4     5    1
     5     4     6   ar
     6     6    13    1
     7    13    15    1
     8    15    16    2
     9    16    17    1
    10    17    18    1
    11    18    19    1
    12     6     7   ar
    13     7     8   ar
    14     8     9   ar
    15     9    10   ar
    16    10    11   ar
    17    11    12   ar
    18    12     2   ar
    19    19    15    1
    20    12     7   ar
    21    13    14    1
    22    19    20    1
@<TRIPOS>MOLECULE
*****
 20 22 0 0 0
SMALL
GASTEIGER

@<TRIPOS>ATOM
      1 C         143.6533  145.0253  163.3720 C.3     1  UNL1        0.0310
      2 C         142.7086  144.1813  164.1750 C.ar    1  UNL1       -0.0212
      3 C         143.2417  143.2420  165.2159 C.ar    1  UNL1        0.0051
      4 C         142.2969  142.3979  166.0190 C.ar    1  UNL1        0.0629
      5 BR        142.8301  141.4586  167.0599 Br      1  UNL1       -0.0463
      6 C         140.8190  142.4931  165.7812 C.ar    1  UNL1        0.1145
      7 C         140.2858  143.4324  164.7402 C.ar    1  UNL1        0.0289
      8 C         138.8078  143.5276  164.5024 C.ar    1  UNL1        0.0026
      9 C         138.2747  144.4669  163.4615 C.ar    1  UNL1        0.0001
     10 C         139.2195  145.3109  162.6584 C.ar    1  UNL1       -0.0000
     11 C         140.6974  145.2157  162.8963 C.ar    1  UNL1       -0.0002
     12 C         141.2305  144.2765  163.9372 C.ar    1  UNL1       -0.0014
     13 N         139.8742  141.6491  166.5842 N.pl3   1  UNL1       -0.2047
     14 H         139.5377  141.9748  167.4502 H       1  UNL1        0.2512
     15 C         139.4420  140.3087  166.0679 C.cat   1  UNL1        0.3709
     16 N         138.5428  139.3391  166.7760 N.2     1  UNL1       -0.0977
     17 C         138.3782  138.1338  165.8985 C.3     1  UNL1        0.2596
     18 C         139.1757  138.3584  164.6481 C.3     1  UNL1        0.2107
     19 N         139.8332  139.7026  164.7528 N.pl3   1  UNL1       -0.2215
     20 H         140.4186  140.1146  164.0770 H       1  UNL1        0.2454
@<TRIPOS>BOND
     1     1     2    1
     2     2     3   ar
     3     3     4   ar
     4     4     5    1
     5     4     6   ar
     6     6    13    1
     7    13    15    1
     8    15    16    2
     9    16    17    1
    10    17    18    1
    11    18    19    1
    12     6     7   ar
    13     7     8   ar
    14     8     9   ar
    15     9    10   ar
    16    10    11   ar
    17    11    12   ar
    18    12     2   ar
    19    19    15    1
    20    12     7   ar
    21    13    14    1
    22    19    20    1
