@<TRIPOS>MOLECULE
*****
 33 36 0 0 0
SMALL
GASTEIGER

@<TRIPOS>ATOM
      1 C         139.7114  139.6900  160.6424 C.3     1  UNL1        0.0437
      2 C         140.5562  138.9360  159.6585 C.ar    1  UNL1       -0.0206
      3 C         139.9537  138.4406  158.3773 C.ar    1  UNL1       -0.0011
      4 C         140.7985  137.6866  157.3935 C.ar    1  UNL1        0.0373
      5 C         142.2458  137.4281  157.6909 C.ar    1  UNL1        0.1477
      6 C         142.8483  137.9235  158.9722 C.ar    1  UNL1        0.0373
      7 C         142.0035  138.6775  159.9560 C.ar    1  UNL1       -0.0011
      8 O         143.0906  136.6742  156.7072 O.3     1  UNL1       -0.4313
      9 C         142.8273  135.2196  156.4522 C.ar    1  UNL1        0.2628
     10 N         141.7766  134.6606  155.5393 N.ar    1  UNL1       -0.2050
     11 C         141.8684  133.1642  155.5883 C.ar    1  UNL1        0.0910
     12 C         141.0866  132.0874  154.8959 C.ar    1  UNL1        0.0197
     13 C         141.4124  130.6449  155.1467 C.ar    1  UNL1        0.0016
     14 C         142.5200  130.2791  156.0899 C.ar    1  UNL1        0.0006
     15 C         143.3017  131.3559  156.7822 C.ar    1  UNL1        0.0081
     16 C         142.9760  132.7984  156.5314 C.ar    1  UNL1        0.0515
     17 S         143.5686  134.0687  157.0654 S.2     1  UNL1       -0.0283
     18 C         138.6233  138.9821  161.3940 C.3     1  UNL1        0.0768
     19 C         138.5331  139.1279  165.8907 C.3     1  UNL1        0.0744
     20 C         138.1025  140.3228  165.0928 C.3     1  UNL1        0.0369
     21 C         138.1326  140.2743  163.5939 C.3     1  UNL1        0.0738
     22 N         138.5932  139.0307  162.8929 N.3     1  UNL1       -0.2723
     23 C         139.0239  137.8357  163.6908 C.3     1  UNL1        0.0738
     24 C         138.9938  137.8844  165.1898 C.3     1  UNL1        0.0369
     25 C         139.4069  140.1191  168.1278 C.2     1  UNL1        0.2671
     26 O         140.3407  141.0130  167.3669 O.2     1  UNL1       -0.2711
     27 N         138.5031  139.1765  167.3896 N.am    1  UNL1       -0.3028
     28 H         137.8902  138.5897  167.8889 H       1  UNL1        0.1495
     29 C         139.3769  140.1676  169.6266 C.3     1  UNL1        0.2923
     30 O         138.9800  141.4327  170.3283 O.3     1  UNL1       -0.4384
     31 C         140.4148  143.5487  169.8665 C.3     1  UNL1        0.1212
     32 C         140.0310  142.4100  170.7642 C.2     1  UNL1        0.3180
     33 O         140.6984  142.2485  172.0978 O.2     1  UNL1       -0.2501
@<TRIPOS>BOND
     1    31    32    1
     2    32    33    2
     3    32    30    1
     4    30    29    1
     5    29    25    1
     6    25    26    2
     7    25    27   am
     8    27    19    1
     9    19    20    1
    10    20    21    1
    11    21    22    1
    12    22    18    1
    13    18     1    1
    14     1     2    1
    15     2     3   ar
    16     3     4   ar
    17     4     5   ar
    18     5     8    1
    19     8     9    1
    20     9    10   ar
    21    10    11   ar
    22    11    12   ar
    23    12    13   ar
    24    13    14   ar
    25    14    15   ar
    26    15    16   ar
    27    16    17   ar
    28     5     6   ar
    29     6     7   ar
    30    22    23    1
    31    23    24    1
    32    24    19    1
    33     7     2   ar
    34    17     9   ar
    35    16    11   ar
    36    27    28    1
@<TRIPOS>MOLECULE
*****
 33 36 0 0 0
SMALL
GASTEIGER

@<TRIPOS>ATOM
      1 C         138.4396  139.2245  166.1050 C.3     1  UNL1        0.0437
      2 C         138.6745  140.5609  165.4654 C.ar    1  UNL1       -0.0206
      3 C         137.7676  141.0378  164.3700 C.ar    1  UNL1       -0.0011
      4 C         138.0024  142.3742  163.7304 C.ar    1  UNL1        0.0373
      5 C         139.1441  143.2336  164.1863 C.ar    1  UNL1        0.1477
      6 C         140.0511  142.7566  165.2818 C.ar    1  UNL1        0.0373
      7 C         139.8162  141.4203  165.9214 C.ar    1  UNL1       -0.0011
      8 O         139.3790  144.5700  163.5468 O.3     1  UNL1       -0.4313
      9 C         139.9724  144.6493  162.1715 C.ar    1  UNL1        0.2628
     10 N         139.5294  145.5683  161.0718 N.ar    1  UNL1       -0.2050
     11 C         140.3962  145.3106  159.8750 C.ar    1  UNL1        0.0910
     12 C         140.4207  145.9185  158.5039 C.ar    1  UNL1        0.0197
     13 C         141.4239  145.4481  157.4929 C.ar    1  UNL1        0.0016
     14 C         142.4026  144.3698  157.8529 C.ar    1  UNL1        0.0006
     15 C         142.3781  143.7620  159.2239 C.ar    1  UNL1        0.0081
     16 C         141.3748  144.2324  160.2350 C.ar    1  UNL1        0.0515
     17 S         141.1129  143.8237  161.6543 S.2     1  UNL1       -0.0283
     18 C         138.7156  137.9663  165.3365 C.3     1  UNL1        0.0768
     19 C         141.1724  138.1241  161.5696 C.3     1  UNL1        0.0744
     20 C         141.8450  138.2073  162.9077 C.3     1  UNL1        0.0369
     21 C         141.0261  138.1547  164.1633 C.3     1  UNL1        0.0738
     22 N         139.5345  138.0189  164.0808 N.3     1  UNL1       -0.2723
     23 C         138.8619  137.9357  162.7427 C.3     1  UNL1        0.0738
     24 C         139.6808  137.9883  161.4870 C.3     1  UNL1        0.0369
     25 C         141.9774  139.4102  159.4605 C.2     1  UNL1        0.2671
     26 O         141.1446  140.5912  159.8628 O.2     1  UNL1       -0.2711
     27 N         141.9912  138.1767  160.3139 N.am    1  UNL1       -0.3028
     28 H         142.5378  137.4016  160.0499 H       1  UNL1        0.1495
     29 C         142.7962  139.4628  158.2049 C.3     1  UNL1        0.2923
     30 O         144.2555  139.8031  158.2749 O.3     1  UNL1       -0.4384
     31 C         145.0699  141.9851  157.1237 C.3     1  UNL1        0.1212
     32 C         144.9210  140.4925  157.1209 C.2     1  UNL1        0.3180
     33 O         145.4376  139.6894  155.9641 O.2     1  UNL1       -0.2501
@<TRIPOS>BOND
     1    31    32    1
     2    32    33    2
     3    32    30    1
     4    30    29    1
     5    29    25    1
     6    25    26    2
     7    25    27   am
     8    27    19    1
     9    19    20    1
    10    20    21    1
    11    21    22    1
    12    22    18    1
    13    18     1    1
    14     1     2    1
    15     2     3   ar
    16     3     4   ar
    17     4     5   ar
    18     5     8    1
    19     8     9    1
    20     9    10   ar
    21    10    11   ar
    22    11    12   ar
    23    12    13   ar
    24    13    14   ar
    25    14    15   ar
    26    15    16   ar
    27    16    17   ar
    28     5     6   ar
    29     6     7   ar
    30    22    23    1
    31    23    24    1
    32    24    19    1
    33     7     2   ar
    34    17     9   ar
    35    16    11   ar
    36    27    28    1
@<TRIPOS>MOLECULE
*****
 33 36 0 0 0
SMALL
GASTEIGER

@<TRIPOS>ATOM
      1 C         139.4943  139.9202  167.6951 C.3     1  UNL1        0.0437
      2 C         140.5469  140.6672  166.9308 C.ar    1  UNL1       -0.0206
      3 C         140.3065  142.0889  166.5171 C.ar    1  UNL1       -0.0011
      4 C         141.3591  142.8359  165.7529 C.ar    1  UNL1        0.0373
      5 C         142.6521  142.1612  165.4023 C.ar    1  UNL1        0.1477
      6 C         142.8925  140.7395  165.8160 C.ar    1  UNL1        0.0373
      7 C         141.8399  139.9926  166.5803 C.ar    1  UNL1       -0.0011
      8 O         143.7047  142.9081  164.6381 O.3     1  UNL1       -0.4313
      9 C         143.6316  142.9865  163.1419 C.ar    1  UNL1        0.2628
     10 N         142.5359  143.6304  162.3453 N.ar    1  UNL1       -0.2050
     11 C         142.8684  143.4767  160.8907 C.ar    1  UNL1        0.0910
     12 C         142.1545  143.9141  159.6462 C.ar    1  UNL1        0.0197
     13 C         142.7418  143.6125  158.2993 C.ar    1  UNL1        0.0016
     14 C         144.0431  142.8735  158.1970 C.ar    1  UNL1        0.0006
     15 C         144.7571  142.4361  159.4415 C.ar    1  UNL1        0.0081
     16 C         144.1698  142.7377  160.7884 C.ar    1  UNL1        0.0515
     17 S         144.6414  142.4348  162.1797 S.2     1  UNL1       -0.0283
     18 C         138.4177  139.1787  166.9595 C.3     1  UNL1        0.0768
     19 C         138.7916  138.4783  162.5301 C.3     1  UNL1        0.0744
     20 C         139.3047  137.4531  163.4975 C.3     1  UNL1        0.0369
     21 C         139.1800  137.6866  164.9740 C.3     1  UNL1        0.0738
     22 N         138.5423  138.9452  165.4831 N.3     1  UNL1       -0.2723
     23 C         138.0293  139.9704  164.5157 C.3     1  UNL1        0.0738
     24 C         138.1540  139.7369  163.0392 C.3     1  UNL1        0.0369
     25 C         140.1436  138.7028  160.3229 C.2     1  UNL1        0.2671
     26 O         141.2463  139.3942  161.0686 O.2     1  UNL1       -0.2711
     27 N         138.9163  138.2448  161.0537 N.am    1  UNL1       -0.3028
     28 H         138.1926  137.7910  160.5643 H       1  UNL1        0.1495
     29 C         140.2683  138.4693  158.8465 C.3     1  UNL1        0.2923
     30 O         139.1472  138.8573  157.9285 O.3     1  UNL1       -0.4384
     31 C         139.5431  141.4247  157.9664 C.3     1  UNL1        0.1212
     32 C         138.6039  140.2552  157.9573 C.2     1  UNL1        0.3180
     33 O         137.1215  140.4835  157.9769 O.2     1  UNL1       -0.2501
@<TRIPOS>BOND
     1    31    32    1
     2    32    33    2
     3    32    30    1
     4    30    29    1
     5    29    25    1
     6    25    26    2
     7    25    27   am
     8    27    19    1
     9    19    20    1
    10    20    21    1
    11    21    22    1
    12    22    18    1
    13    18     1    1
    14     1     2    1
    15     2     3   ar
    16     3     4   ar
    17     4     5   ar
    18     5     8    1
    19     8     9    1
    20     9    10   ar
    21    10    11   ar
    22    11    12   ar
    23    12    13   ar
    24    13    14   ar
    25    14    15   ar
    26    15    16   ar
    27    16    17   ar
    28     5     6   ar
    29     6     7   ar
    30    22    23    1
    31    23    24    1
    32    24    19    1
    33     7     2   ar
    34    17     9   ar
    35    16    11   ar
    36    27    28    1
@<TRIPOS>MOLECULE
*****
 33 36 0 0 0
SMALL
GASTEIGER

@<TRIPOS>ATOM
      1 C         141.4968  137.9922  157.7181 C.3     1  UNL1        0.0437
      2 C         142.3388  138.5560  158.8241 C.ar    1  UNL1       -0.0206
      3 C         142.9674  137.6384  159.8305 C.ar    1  UNL1       -0.0011
      4 C         143.8094  138.2022  160.9366 C.ar    1  UNL1        0.0373
      5 C         144.0227  139.6837  161.0362 C.ar    1  UNL1        0.1477
      6 C         143.3940  140.6012  160.0297 C.ar    1  UNL1        0.0373
      7 C         142.5521  140.0374  158.9238 C.ar    1  UNL1       -0.0011
      8 O         144.8646  140.2475  162.1422 O.3     1  UNL1       -0.4313
      9 C         144.2998  140.3710  163.5263 C.ar    1  UNL1        0.2628
     10 N         143.9825  139.2356  164.4537 N.ar    1  UNL1       -0.2050
     11 C         143.4398  139.8145  165.7266 C.ar    1  UNL1        0.0910
     12 C         142.9598  139.1749  166.9956 C.ar    1  UNL1        0.0197
     13 C         142.4617  140.0285  168.1239 C.ar    1  UNL1        0.0016
     14 C         142.4436  141.5218  167.9832 C.ar    1  UNL1        0.0006
     15 C         142.9236  142.1614  166.7142 C.ar    1  UNL1        0.0081
     16 C         143.4217  141.3078  165.5859 C.ar    1  UNL1        0.0515
     17 S         143.9532  141.6517  164.2261 S.2     1  UNL1       -0.0283
     18 C         140.0011  138.0140  157.8284 C.3     1  UNL1        0.0768
     19 C         138.0293  140.1518  161.2624 C.3     1  UNL1        0.0744
     20 C         138.1252  140.8162  159.9210 C.3     1  UNL1        0.0369
     21 C         138.7824  140.1036  158.7763 C.3     1  UNL1        0.0738
     22 N         139.3438  138.7266  158.9730 N.3     1  UNL1       -0.2723
     23 C         139.2480  138.0622  160.3144 C.3     1  UNL1        0.0738
     24 C         138.5907  138.7748  161.4591 C.3     1  UNL1        0.0369
     25 C         138.0588  142.0270  163.0604 C.2     1  UNL1        0.2671
     26 O         139.4027  142.4770  162.5691 O.2     1  UNL1       -0.2711
     27 N         137.3721  140.8643  162.4070 N.am    1  UNL1       -0.3028
     28 H         136.4900  140.5690  162.7295 H       1  UNL1        0.1495
     29 C         137.4015  142.7395  164.2050 C.3     1  UNL1        0.2923
     30 O         137.5307  144.2283  164.3353 O.3     1  UNL1       -0.4384
     31 C         140.0288  144.6030  164.9423 C.3     1  UNL1        0.1212
     32 C         138.5739  144.8144  165.2398 C.2     1  UNL1        0.3180
     33 O         138.1622  145.6117  166.4417 O.2     1  UNL1       -0.2501
@<TRIPOS>BOND
     1    31    32    1
     2    32    33    2
     3    32    30    1
     4    30    29    1
     5    29    25    1
     6    25    26    2
     7    25    27   am
     8    27    19    1
     9    19    20    1
    10    20    21    1
    11    21    22    1
    12    22    18    1
    13    18     1    1
    14     1     2    1
    15     2     3   ar
    16     3     4   ar
    17     4     5   ar
    18     5     8    1
    19     8     9    1
    20     9    10   ar
    21    10    11   ar
    22    11    12   ar
    23    12    13   ar
    24    13    14   ar
    25    14    15   ar
    26    15    16   ar
    27    16    17   ar
    28     5     6   ar
    29     6     7   ar
    30    22    23    1
    31    23    24    1
    32    24    19    1
    33     7     2   ar
    34    17     9   ar
    35    16    11   ar
    36    27    28    1
@<TRIPOS>MOLECULE
*****
 33 36 0 0 0
SMALL
GASTEIGER

@<TRIPOS>ATOM
      1 C         139.3087  139.8094  160.6628 C.3     1  UNL1        0.0437
      2 C         140.2850  139.0716  159.7952 C.ar    1  UNL1       -0.0206
      3 C         139.9307  138.7496  158.3737 C.ar    1  UNL1       -0.0011
      4 C         140.9070  138.0117  157.5061 C.ar    1  UNL1        0.0373
      5 C         142.2374  137.5959  158.0601 C.ar    1  UNL1        0.1477
      6 C         142.5917  137.9180  159.4817 C.ar    1  UNL1        0.0373
      7 C         141.6154  138.6557  160.3492 C.ar    1  UNL1       -0.0011
      8 O         143.2137  136.8581  157.1926 O.3     1  UNL1       -0.4313
      9 C         142.9737  135.4174  156.8511 C.ar    1  UNL1        0.2628
     10 N         143.6138  134.2351  157.5162 N.ar    1  UNL1       -0.2050
     11 C         143.0872  132.9930  156.8606 C.ar    1  UNL1        0.0910
     12 C         143.3622  131.5380  157.1000 C.ar    1  UNL1        0.0197
     13 C         142.6715  130.4976  156.2690 C.ar    1  UNL1        0.0016
     14 C         141.7059  130.9122  155.1987 C.ar    1  UNL1        0.0006
     15 C         141.4309  132.3672  154.9593 C.ar    1  UNL1        0.0081
     16 C         142.1216  133.4076  155.7903 C.ar    1  UNL1        0.0515
     17 S         142.0514  134.9059  155.7844 S.2     1  UNL1       -0.0283
     18 C         138.6105  139.0948  161.7815 C.3     1  UNL1        0.0768
     19 C         139.8996  139.7773  166.0386 C.3     1  UNL1        0.0744
     20 C         139.2476  138.4833  165.6506 C.3     1  UNL1        0.0369
     21 C         138.8179  138.2558  164.2317 C.3     1  UNL1        0.0738
     22 N         139.0402  139.3223  163.2005 N.3     1  UNL1       -0.2723
     23 C         139.6922  140.6163  163.5884 C.3     1  UNL1        0.0738
     24 C         140.1219  140.8438  165.0075 C.3     1  UNL1        0.0369
     25 C         141.7604  139.7884  167.8517 C.2     1  UNL1        0.2671
     26 O         142.7617  139.3445  166.8268 O.2     1  UNL1       -0.2711
     27 N         140.3293  140.0048  167.4575 N.am    1  UNL1       -0.3028
     28 H         139.6722  140.2961  168.1302 H       1  UNL1        0.1495
     29 C         142.1901  140.0159  169.2707 C.3     1  UNL1        0.2923
     30 O         141.1832  140.4318  170.3018 O.3     1  UNL1       -0.4384
     31 C         141.7233  142.9441  169.9195 C.3     1  UNL1        0.1212
     32 C         141.1298  141.8572  170.7658 C.2     1  UNL1        0.3180
     33 O         140.4830  142.1956  172.0762 O.2     1  UNL1       -0.2501
@<TRIPOS>BOND
     1    31    32    1
     2    32    33    2
     3    32    30    1
     4    30    29    1
     5    29    25    1
     6    25    26    2
     7    25    27   am
     8    27    19    1
     9    19    20    1
    10    20    21    1
    11    21    22    1
    12    22    18    1
    13    18     1    1
    14     1     2    1
    15     2     3   ar
    16     3     4   ar
    17     4     5   ar
    18     5     8    1
    19     8     9    1
    20     9    10   ar
    21    10    11   ar
    22    11    12   ar
    23    12    13   ar
    24    13    14   ar
    25    14    15   ar
    26    15    16   ar
    27    16    17   ar
    28     5     6   ar
    29     6     7   ar
    30    22    23    1
    31    23    24    1
    32    24    19    1
    33     7     2   ar
    34    17     9   ar
    35    16    11   ar
    36    27    28    1
@<TRIPOS>MOLECULE
*****
 33 36 0 0 0
SMALL
GASTEIGER

@<TRIPOS>ATOM
      1 C         143.1911  138.6016  166.7793 C.3     1  UNL1        0.0437
      2 C         142.8025  138.3534  165.3519 C.ar    1  UNL1       -0.0206
      3 C         143.6433  138.9049  164.2389 C.ar    1  UNL1       -0.0011
      4 C         143.2546  138.6567  162.8115 C.ar    1  UNL1        0.0373
      5 C         142.0252  137.8569  162.4972 C.ar    1  UNL1        0.1477
      6 C         141.1843  137.3054  163.6103 C.ar    1  UNL1        0.0373
      7 C         141.5730  137.5536  165.0376 C.ar    1  UNL1       -0.0011
      8 O         141.6365  137.6087  161.0699 O.3     1  UNL1       -0.4313
      9 C         140.9769  138.6945  160.2725 C.ar    1  UNL1        0.2628
     10 N         141.4547  139.2378  158.9585 N.ar    1  UNL1       -0.2050
     11 C         140.4968  140.3067  158.5229 C.ar    1  UNL1        0.0910
     12 C         140.4605  141.1884  157.3099 C.ar    1  UNL1        0.0197
     13 C         139.3544  142.1874  157.1418 C.ar    1  UNL1        0.0016
     14 C         138.2845  142.3048  158.1866 C.ar    1  UNL1        0.0006
     15 C         138.3208  141.4232  159.3995 C.ar    1  UNL1        0.0081
     16 C         139.4269  140.4241  159.5677 C.ar    1  UNL1        0.0515
     17 S         139.7236  139.4277  160.6490 S.2     1  UNL1       -0.0283
     18 C         142.6441  139.7923  167.5094 C.3     1  UNL1        0.0768
     19 C         140.9314  143.2549  165.2014 C.3     1  UNL1        0.0744
     20 C         140.0168  142.2989  165.9081 C.3     1  UNL1        0.0369
     21 C         140.5876  141.1447  166.6775 C.3     1  UNL1        0.0738
     22 N         142.0732  140.9465  166.7400 N.3     1  UNL1       -0.2723
     23 C         142.9878  141.9025  166.0333 C.3     1  UNL1        0.0738
     24 C         142.4169  143.0567  165.2639 C.3     1  UNL1        0.0369
     25 C         139.8123  144.1932  163.0525 C.2     1  UNL1        0.2671
     26 O         139.8351  142.8231  162.4424 O.2     1  UNL1       -0.2711
     27 N         140.3605  144.4091  164.4321 N.am    1  UNL1       -0.3028
     28 H         140.3456  145.3084  164.8325 H       1  UNL1        0.1495
     29 C         139.2415  145.3474  162.2832 C.3     1  UNL1        0.2923
     30 O         140.1117  146.1238  161.3398 O.3     1  UNL1       -0.4384
     31 C         140.2940  145.4169  158.8465 C.3     1  UNL1        0.1212
     32 C         140.8463  145.4144  160.2411 C.2     1  UNL1        0.3180
     33 O         142.1331  144.7026  160.5370 O.2     1  UNL1       -0.2501
@<TRIPOS>BOND
     1    31    32    1
     2    32    33    2
     3    32    30    1
     4    30    29    1
     5    29    25    1
     6    25    26    2
     7    25    27   am
     8    27    19    1
     9    19    20    1
    10    20    21    1
    11    21    22    1
    12    22    18    1
    13    18     1    1
    14     1     2    1
    15     2     3   ar
    16     3     4   ar
    17     4     5   ar
    18     5     8    1
    19     8     9    1
    20     9    10   ar
    21    10    11   ar
    22    11    12   ar
    23    12    13   ar
    24    13    14   ar
    25    14    15   ar
    26    15    16   ar
    27    16    17   ar
    28     5     6   ar
    29     6     7   ar
    30    22    23    1
    31    23    24    1
    32    24    19    1
    33     7     2   ar
    34    17     9   ar
    35    16    11   ar
    36    27    28    1
@<TRIPOS>MOLECULE
*****
 33 36 0 0 0
SMALL
GASTEIGER

@<TRIPOS>ATOM
      1 C         141.6928  140.2547  168.1826 C.3     1  UNL1        0.0437
      2 C         142.5339  140.2599  166.9405 C.ar    1  UNL1       -0.0206
      3 C         142.9581  138.9635  166.3166 C.ar    1  UNL1       -0.0011
      4 C         143.7993  138.9687  165.0746 C.ar    1  UNL1        0.0373
      5 C         144.2161  140.2704  164.4565 C.ar    1  UNL1        0.1477
      6 C         143.7919  141.5668  165.0806 C.ar    1  UNL1        0.0373
      7 C         142.9508  141.5616  166.3225 C.ar    1  UNL1       -0.0011
      8 O         145.0572  140.2756  163.2146 O.3     1  UNL1       -0.4313
      9 C         144.4272  140.0026  161.8810 C.ar    1  UNL1        0.2628
     10 N         144.2129  141.0045  160.7854 N.ar    1  UNL1       -0.2050
     11 C         143.5542  140.3008  159.6361 C.ar    1  UNL1        0.0910
     12 C         143.1050  140.7828  158.2885 C.ar    1  UNL1        0.0197
     13 C         142.4630  139.8279  157.3262 C.ar    1  UNL1        0.0016
     14 C         142.2702  138.3911  157.7115 C.ar    1  UNL1        0.0006
     15 C         142.7194  137.9092  159.0590 C.ar    1  UNL1        0.0081
     16 C         143.3613  138.8640  160.0213 C.ar    1  UNL1        0.0515
     17 S         143.9009  138.6797  161.4087 S.2     1  UNL1       -0.0283
     18 C         140.1975  140.3047  168.0759 C.3     1  UNL1        0.0768
     19 C         138.2226  140.1206  164.0366 C.3     1  UNL1        0.0744
     20 C         138.6417  141.4431  164.6070 C.3     1  UNL1        0.0369
     21 C         139.3000  141.5045  165.9534 C.3     1  UNL1        0.0738
     22 N         139.5392  140.2433  166.7295 N.3     1  UNL1       -0.2723
     23 C         139.1200  138.9208  166.1591 C.3     1  UNL1        0.0738
     24 C         138.4617  138.8595  164.8126 C.3     1  UNL1        0.0369
     25 C         138.4020  140.0365  161.4461 C.2     1  UNL1        0.2671
     26 O         139.8980  140.0751  161.5484 O.2     1  UNL1       -0.2711
     27 N         137.5643  140.0592  162.6902 N.am    1  UNL1       -0.3028
     28 H         136.5824  140.0339  162.6230 H       1  UNL1        0.1495
     29 C         137.7438  139.9751  160.0997 C.3     1  UNL1        0.2923
     30 O         138.5218  139.5088  158.9049 O.3     1  UNL1       -0.4384
     31 C         139.3124  141.6322  157.6339 C.3     1  UNL1        0.1212
     32 C         138.5502  140.3406  157.6571 C.2     1  UNL1        0.3180
     33 O         137.8163  139.8808  156.4323 O.2     1  UNL1       -0.2501
@<TRIPOS>BOND
     1    31    32    1
     2    32    33    2
     3    32    30    1
     4    30    29    1
     5    29    25    1
     6    25    26    2
     7    25    27   am
     8    27    19    1
     9    19    20    1
    10    20    21    1
    11    21    22    1
    12    22    18    1
    13    18     1    1
    14     1     2    1
    15     2     3   ar
    16     3     4   ar
    17     4     5   ar
    18     5     8    1
    19     8     9    1
    20     9    10   ar
    21    10    11   ar
    22    11    12   ar
    23    12    13   ar
    24    13    14   ar
    25    14    15   ar
    26    15    16   ar
    27    16    17   ar
    28     5     6   ar
    29     6     7   ar
    30    22    23    1
    31    23    24    1
    32    24    19    1
    33     7     2   ar
    34    17     9   ar
    35    16    11   ar
    36    27    28    1
@<TRIPOS>MOLECULE
*****
 33 36 0 0 0
SMALL
GASTEIGER

@<TRIPOS>ATOM
      1 C         138.6927  140.6874  157.5978 C.3     1  UNL1        0.0437
      2 C         138.6421  139.9456  158.9006 C.ar    1  UNL1       -0.0206
      3 C         139.5812  138.8029  159.1500 C.ar    1  UNL1       -0.0011
      4 C         139.5306  138.0611  160.4529 C.ar    1  UNL1        0.0373
      5 C         138.5409  138.4621  161.5063 C.ar    1  UNL1        0.1477
      6 C         137.6017  139.6049  161.2568 C.ar    1  UNL1        0.0373
      7 C         137.6523  140.3466  159.9540 C.ar    1  UNL1       -0.0011
      8 O         138.4903  137.7204  162.8090 O.3     1  UNL1       -0.4313
      9 C         139.1886  138.2748  164.0153 C.ar    1  UNL1        0.2628
     10 N         140.6729  138.3448  164.2203 N.ar    1  UNL1       -0.2050
     11 C         140.9268  138.9697  165.5600 C.ar    1  UNL1        0.0910
     12 C         142.1952  139.2917  166.2931 C.ar    1  UNL1        0.0197
     13 C         142.1363  139.9299  167.6493 C.ar    1  UNL1        0.0016
     14 C         140.8090  140.2460  168.2724 C.ar    1  UNL1        0.0006
     15 C         139.5406  139.9241  167.5393 C.ar    1  UNL1        0.0081
     16 C         139.5995  139.2859  166.1831 C.ar    1  UNL1        0.0515
     17 S         138.5252  138.8564  165.2284 S.2     1  UNL1       -0.0283
     18 C         139.5052  141.9428  157.4806 C.3     1  UNL1        0.0768
     19 C         142.2533  143.1649  160.8278 C.3     1  UNL1        0.0744
     20 C         142.7135  142.1683  159.8056 C.3     1  UNL1        0.0369
     21 C         141.7975  141.7609  158.6899 C.3     1  UNL1        0.0738
     22 N         140.4212  142.3501  158.5963 N.3     1  UNL1       -0.2723
     23 C         139.9610  143.3468  159.6185 C.3     1  UNL1        0.0738
     24 C         140.8771  143.7542  160.7343 C.3     1  UNL1        0.0369
     25 C         142.8811  143.1334  163.3487 C.2     1  UNL1        0.2671
     26 O         141.6770  142.2870  163.6381 O.2     1  UNL1       -0.2711
     27 N         143.1693  143.5723  161.9436 N.am    1  UNL1       -0.3028
     28 H         143.9596  144.1278  161.7537 H       1  UNL1        0.1495
     29 C         143.7971  143.5408  164.4645 C.3     1  UNL1        0.2923
     30 O         145.0071  142.7129  164.7817 O.3     1  UNL1       -0.4384
     31 C         145.2441  140.1641  164.3377 C.3     1  UNL1        0.1212
     32 C         145.4010  141.5830  163.8772 C.2     1  UNL1        0.3180
     33 O         145.9517  141.8720  162.5122 O.2     1  UNL1       -0.2501
@<TRIPOS>BOND
     1    31    32    1
     2    32    33    2
     3    32    30    1
     4    30    29    1
     5    29    25    1
     6    25    26    2
     7    25    27   am
     8    27    19    1
     9    19    20    1
    10    20    21    1
    11    21    22    1
    12    22    18    1
    13    18     1    1
    14     1     2    1
    15     2     3   ar
    16     3     4   ar
    17     4     5   ar
    18     5     8    1
    19     8     9    1
    20     9    10   ar
    21    10    11   ar
    22    11    12   ar
    23    12    13   ar
    24    13    14   ar
    25    14    15   ar
    26    15    16   ar
    27    16    17   ar
    28     5     6   ar
    29     6     7   ar
    30    22    23    1
    31    23    24    1
    32    24    19    1
    33     7     2   ar
    34    17     9   ar
    35    16    11   ar
    36    27    28    1
@<TRIPOS>MOLECULE
*****
 33 36 0 0 0
SMALL
GASTEIGER

@<TRIPOS>ATOM
      1 C         141.1558  143.3687  156.1750 C.3     1  UNL1        0.0437
      2 C         140.2466  142.5014  156.9941 C.ar    1  UNL1       -0.0206
      3 C         139.0150  143.0861  157.6196 C.ar    1  UNL1       -0.0011
      4 C         138.1057  142.2188  158.4388 C.ar    1  UNL1        0.0373
      5 C         138.4281  140.7667  158.6324 C.ar    1  UNL1        0.1477
      6 C         139.6597  140.1819  158.0069 C.ar    1  UNL1        0.0373
      7 C         140.5689  141.0493  157.1878 C.ar    1  UNL1       -0.0011
      8 O         137.5189  139.8993  159.4516 O.3     1  UNL1       -0.4313
      9 C         137.8118  139.6671  160.9042 C.ar    1  UNL1        0.2628
     10 N         137.6340  140.6648  162.0100 N.ar    1  UNL1       -0.2050
     11 C         138.0463  140.0107  163.2954 C.ar    1  UNL1        0.0910
     12 C         138.0837  140.5106  164.7091 C.ar    1  UNL1        0.0197
     13 C         138.5537  139.6084  165.8114 C.ar    1  UNL1        0.0016
     14 C         138.9864  138.2063  165.5000 C.ar    1  UNL1        0.0006
     15 C         138.9490  137.7064  164.0863 C.ar    1  UNL1        0.0081
     16 C         138.4790  138.6086  162.9840 C.ar    1  UNL1        0.0515
     17 S         138.3340  138.3963  161.5062 S.2     1  UNL1       -0.0283
     18 C         142.2091  144.1976  156.8484 C.3     1  UNL1        0.0768
     19 C         144.0790  142.7750  160.6863 C.3     1  UNL1        0.0744
     20 C         144.7424  142.4790  159.3740 C.3     1  UNL1        0.0369
     21 C         144.1192  142.9532  158.0947 C.3     1  UNL1        0.0738
     22 N         142.8324  143.7234  158.1277 N.3     1  UNL1       -0.2723
     23 C         142.1689  144.0194  159.4400 C.3     1  UNL1        0.0738
     24 C         142.7923  143.5451  160.7193 C.3     1  UNL1        0.0369
     25 C         144.5016  140.8846  162.4178 C.2     1  UNL1        0.2671
     26 O         143.6777  139.9428  161.5907 O.2     1  UNL1       -0.2711
     27 N         144.7022  142.3008  161.9656 N.am    1  UNL1       -0.3028
     28 H         145.2430  142.9189  162.5084 H       1  UNL1        0.1495
     29 C         145.1248  140.4104  163.6971 C.3     1  UNL1        0.2923
     30 O         144.7287  139.0856  164.2785 O.3     1  UNL1       -0.4384
     31 C         143.5563  138.3226  166.4678 C.3     1  UNL1        0.1212
     32 C         143.4911  138.9752  165.1188 C.2     1  UNL1        0.3180
     33 O         142.1883  139.5173  164.6101 O.2     1  UNL1       -0.2501
@<TRIPOS>BOND
     1    31    32    1
     2    32    33    2
     3    32    30    1
     4    30    29    1
     5    29    25    1
     6    25    26    2
     7    25    27   am
     8    27    19    1
     9    19    20    1
    10    20    21    1
    11    21    22    1
    12    22    18    1
    13    18     1    1
    14     1     2    1
    15     2     3   ar
    16     3     4   ar
    17     4     5   ar
    18     5     8    1
    19     8     9    1
    20     9    10   ar
    21    10    11   ar
    22    11    12   ar
    23    12    13   ar
    24    13    14   ar
    25    14    15   ar
    26    15    16   ar
    27    16    17   ar
    28     5     6   ar
    29     6     7   ar
    30    22    23    1
    31    23    24    1
    32    24    19    1
    33     7     2   ar
    34    17     9   ar
    35    16    11   ar
    36    27    28    1
