@<TRIPOS>MOLECULE
*****
 37 42 0 0 0
SMALL
GASTEIGER

@<TRIPOS>ATOM
      1 C         143.2838  138.7378  160.7680 C.ar    1  UNL1        0.1642
      2 N         143.8577  138.4090  162.1144 N.ar    1  UNL1       -0.2121
      3 C         144.1185  139.5039  163.1061 C.ar    1  UNL1        0.1320
      4 C         143.8055  140.9272  162.7515 C.ar    1  UNL1        0.0515
      5 C         143.9542  142.2084  163.5173 C.ar    1  UNL1       -0.0155
      6 C         143.4722  143.3289  162.6444 C.ar    1  UNL1        0.0049
      7 S         143.0256  142.7403  161.3390 S.2     1  UNL1       -0.0725
      8 C         143.2316  141.2560  161.4051 C.ar    1  UNL1        0.1144
      9 N         142.9707  140.1612  160.4134 N.ar    1  UNL1       -0.2200
     10 C         143.6208  144.6101  163.4102 C.3     1  UNL1        0.0330
     11 C         144.1947  144.2813  164.7565 C.3     1  UNL1        0.0099
     12 C         144.4007  142.7970  164.8227 C.3     1  UNL1        0.0271
     13 C         142.6120  137.9833  158.3744 C.2     1  UNL1        0.0032
     14 C         143.0230  137.6430  159.7763 C.2     1  UNL1        0.0388
     15 C         142.9664  134.5764  156.3701 C.ar    1  UNL1        0.1547
     16 C         143.2272  135.6712  157.3618 C.ar    1  UNL1        0.0384
     17 C         142.3511  136.8886  157.3827 C.ar    1  UNL1        0.0032
     18 C         141.2143  137.0112  156.4119 C.ar    1  UNL1        0.0017
     19 C         140.9534  135.9165  155.4202 C.ar    1  UNL1        0.0206
     20 C         141.8295  134.6991  155.3993 C.ar    1  UNL1        0.0994
     21 N         141.5686  133.6044  154.4076 N.ar    1  UNL1       -0.2839
     22 C         141.8245  133.6728  152.9311 C.ar    1  UNL1        0.1826
     23 N         141.4201  132.3597  152.3292 N.ar    1  UNL1       -0.2280
     24 C         140.9143  131.4797  153.4337 C.ar    1  UNL1        0.0786
     25 C         140.4059  130.0768  153.2806 C.3     1  UNL1        0.0538
     26 C         141.0060  132.2489  154.7181 C.ar    1  UNL1        0.0963
     27 C         144.4729  132.8667  157.6181 C.3     1  UNL1        0.2525
     28 O         143.8425  133.3590  156.3491 O.3     1  UNL1       -0.4700
     29 N         144.6924  139.1751  164.4524 N.pl3   1  UNL1       -0.3144
     30 H         145.6674  139.1883  164.5884 H       1  UNL1        0.1485
     31 C         143.7808  138.8263  165.5914 C.3     1  UNL1        0.1154
     32 C         142.2939  138.8454  165.3950 C.ar    1  UNL1       -0.0026
     33 C         141.5893  137.6245  164.8822 C.ar    1  UNL1       -0.0026
     34 C         140.1023  137.6437  164.6858 C.ar    1  UNL1       -0.0003
     35 C         139.3200  138.8838  165.0022 C.ar    1  UNL1       -0.0000
     36 C         140.0245  140.1046  165.5149 C.ar    1  UNL1       -0.0003
     37 C         141.5114  140.0855  165.7113 C.ar    1  UNL1       -0.0026
@<TRIPOS>BOND
     1    27    28    1
     2    28    15    1
     3    15    16   ar
     4    16    17   ar
     5    17    13    1
     6    13    14    2
     7    14     1    1
     8     1     2   ar
     9     2     3   ar
    10     3    29    1
    11    29    31    1
    12    31    32    1
    13    32    33   ar
    14    33    34   ar
    15    34    35   ar
    16    35    36   ar
    17    36    37   ar
    18     3     4   ar
    19     4     5   ar
    20     5     6   ar
    21     6     7   ar
    22     7     8   ar
    23     8     9   ar
    24     6    10    1
    25    10    11    1
    26    11    12    1
    27    17    18   ar
    28    18    19   ar
    29    19    20   ar
    30    20    21    1
    31    21    22   ar
    32    22    23   ar
    33    23    24   ar
    34    24    25    1
    35    24    26   ar
    36    20    15   ar
    37    26    21   ar
    38     9     1   ar
    39    37    32   ar
    40     8     4   ar
    41    12     5    1
    42    29    30    1
@<TRIPOS>MOLECULE
*****
 37 42 0 0 0
SMALL
GASTEIGER

@<TRIPOS>ATOM
      1 C         140.1622  139.4954  161.1223 C.ar    1  UNL1        0.1642
      2 N         141.1809  139.5316  162.2227 N.ar    1  UNL1       -0.2121
      3 C         141.0625  140.5461  163.3212 C.ar    1  UNL1        0.1320
      4 C         139.9256  141.5244  163.3194 C.ar    1  UNL1        0.0515
      5 C         139.5510  142.6299  164.2616 C.ar    1  UNL1       -0.0155
      6 C         138.3009  143.2769  163.7435 C.ar    1  UNL1        0.0049
      7 S         137.9027  142.5714  162.4811 S.2     1  UNL1       -0.0725
      8 C         138.9068  141.4883  162.2189 C.ar    1  UNL1        0.1144
      9 N         139.0251  140.4738  161.1204 N.ar    1  UNL1       -0.2200
     10 C         137.9263  144.3824  164.6857 C.3     1  UNL1        0.0330
     11 C         138.9451  144.4185  165.7861 C.3     1  UNL1        0.0099
     12 C         139.9492  143.3354  165.5240 C.3     1  UNL1        0.0271
     13 C         141.0945  138.7896  158.8022 C.2     1  UNL1        0.0032
     14 C         140.2805  138.4809  160.0237 C.2     1  UNL1        0.0388
     15 C         142.5434  135.8811  156.5239 C.ar    1  UNL1        0.1547
     16 C         142.4251  136.8956  157.6224 C.ar    1  UNL1        0.0384
     17 C         141.2128  137.7751  157.7037 C.ar    1  UNL1        0.0032
     18 C         140.1188  137.6402  156.6864 C.ar    1  UNL1        0.0017
     19 C         140.2370  136.6257  155.5879 C.ar    1  UNL1        0.0206
     20 C         141.4494  135.7462  155.5066 C.ar    1  UNL1        0.0994
     21 N         141.5677  134.7317  154.4081 N.ar    1  UNL1       -0.2839
     22 C         141.7995  135.0275  152.9559 C.ar    1  UNL1        0.1826
     23 N         141.8500  133.7219  152.2192 N.ar    1  UNL1       -0.2280
     24 C         141.6495  132.6191  153.2160 C.ar    1  UNL1        0.0786
     25 C         141.6273  131.1502  152.9132 C.3     1  UNL1        0.0538
     26 C         141.4750  133.2431  154.5688 C.ar    1  UNL1        0.0963
     27 C         143.9209  133.8612  157.4031 C.3     1  UNL1        0.2525
     28 O         143.7558  135.0015  156.4426 O.3     1  UNL1       -0.4700
     29 N         142.0813  140.5823  164.4216 N.pl3   1  UNL1       -0.3144
     30 H         142.6974  141.3464  164.4971 H       1  UNL1        0.1485
     31 C         142.1612  139.4542  165.4070 C.3     1  UNL1        0.1154
     32 C         141.6587  139.6445  166.8075 C.ar    1  UNL1       -0.0026
     33 C         142.6000  139.5073  167.9673 C.ar    1  UNL1       -0.0026
     34 C         142.0973  139.6977  169.3677 C.ar    1  UNL1       -0.0003
     35 C         140.6534  140.0253  169.6082 C.ar    1  UNL1       -0.0000
     36 C         139.7121  140.1625  168.4485 C.ar    1  UNL1       -0.0003
     37 C         140.2147  139.9721  167.0481 C.ar    1  UNL1       -0.0026
@<TRIPOS>BOND
     1    27    28    1
     2    28    15    1
     3    15    16   ar
     4    16    17   ar
     5    17    13    1
     6    13    14    2
     7    14     1    1
     8     1     2   ar
     9     2     3   ar
    10     3    29    1
    11    29    31    1
    12    31    32    1
    13    32    33   ar
    14    33    34   ar
    15    34    35   ar
    16    35    36   ar
    17    36    37   ar
    18     3     4   ar
    19     4     5   ar
    20     5     6   ar
    21     6     7   ar
    22     7     8   ar
    23     8     9   ar
    24     6    10    1
    25    10    11    1
    26    11    12    1
    27    17    18   ar
    28    18    19   ar
    29    19    20   ar
    30    20    21    1
    31    21    22   ar
    32    22    23   ar
    33    23    24   ar
    34    24    25    1
    35    24    26   ar
    36    20    15   ar
    37    26    21   ar
    38     9     1   ar
    39    37    32   ar
    40     8     4   ar
    41    12     5    1
    42    29    30    1
@<TRIPOS>MOLECULE
*****
 37 42 0 0 0
SMALL
GASTEIGER

@<TRIPOS>ATOM
      1 C         142.0257  137.6681  158.4334 C.ar    1  UNL1        0.1642
      2 N         143.0846  136.6709  158.0663 N.ar    1  UNL1       -0.2121
      3 C         143.0192  135.9587  156.7478 C.ar    1  UNL1        0.1320
      4 C         141.8952  136.2435  155.7963 C.ar    1  UNL1        0.0515
      5 C         141.5693  135.7007  154.4365 C.ar    1  UNL1       -0.0155
      6 C         140.3090  136.3624  153.9631 C.ar    1  UNL1        0.0049
      7 S         139.8561  137.3141  155.0304 S.2     1  UNL1       -0.0725
      8 C         140.8363  137.2407  156.1634 C.ar    1  UNL1        0.1144
      9 N         140.9016  137.9529  157.4819 N.ar    1  UNL1       -0.2200
     10 C         139.9831  135.8196  152.6033 C.3     1  UNL1        0.0330
     11 C         141.0420  134.8225  152.2363 C.3     1  UNL1        0.0099
     12 C         142.0222  134.7490  153.3692 C.3     1  UNL1        0.0271
     13 C         142.5957  137.6620  160.9681 C.2     1  UNL1        0.0032
     14 C         142.0910  138.3803  159.7519 C.2     1  UNL1        0.0388
     15 C         143.9987  139.7550  164.0342 C.ar    1  UNL1        0.1547
     16 C         143.9334  139.0428  162.7157 C.ar    1  UNL1        0.0384
     17 C         142.6610  138.3743  162.2866 C.ar    1  UNL1        0.0032
     18 C         141.4540  138.4180  163.1760 C.ar    1  UNL1        0.0017
     19 C         141.5192  139.1303  164.4945 C.ar    1  UNL1        0.0206
     20 C         142.7916  139.7988  164.9236 C.ar    1  UNL1        0.0994
     21 N         142.8569  140.5110  166.2421 N.ar    1  UNL1       -0.2839
     22 C         143.0866  141.9800  166.4402 C.ar    1  UNL1        0.1826
     23 N         143.0756  142.2562  167.9146 N.ar    1  UNL1       -0.2280
     24 C         142.8391  140.9579  168.6276 C.ar    1  UNL1        0.0786
     25 C         142.7529  140.7709  170.1134 C.3     1  UNL1        0.0538
     26 C         142.7039  139.8793  167.5940 C.ar    1  UNL1        0.0963
     27 C         145.7835  141.6149  163.7096 C.3     1  UNL1        0.2525
     28 O         145.2711  140.4236  164.4634 O.3     1  UNL1       -0.4700
     29 N         144.0780  134.9616  156.3808 N.pl3   1  UNL1       -0.3144
     30 H         144.7306  135.1739  155.6748 H       1  UNL1        0.1485
     31 C         144.1426  133.6411  157.0893 C.3     1  UNL1        0.1154
     32 C         143.7928  132.3793  156.3575 C.ar    1  UNL1       -0.0026
     33 C         144.8703  131.4040  155.9866 C.ar    1  UNL1       -0.0026
     34 C         144.5203  130.1423  155.2548 C.ar    1  UNL1       -0.0003
     35 C         143.0928  129.8559  154.8939 C.ar    1  UNL1       -0.0000
     36 C         142.0153  130.8311  155.2648 C.ar    1  UNL1       -0.0003
     37 C         142.3652  132.0929  155.9966 C.ar    1  UNL1       -0.0026
@<TRIPOS>BOND
     1    27    28    1
     2    28    15    1
     3    15    16   ar
     4    16    17   ar
     5    17    13    1
     6    13    14    2
     7    14     1    1
     8     1     2   ar
     9     2     3   ar
    10     3    29    1
    11    29    31    1
    12    31    32    1
    13    32    33   ar
    14    33    34   ar
    15    34    35   ar
    16    35    36   ar
    17    36    37   ar
    18     3     4   ar
    19     4     5   ar
    20     5     6   ar
    21     6     7   ar
    22     7     8   ar
    23     8     9   ar
    24     6    10    1
    25    10    11    1
    26    11    12    1
    27    17    18   ar
    28    18    19   ar
    29    19    20   ar
    30    20    21    1
    31    21    22   ar
    32    22    23   ar
    33    23    24   ar
    34    24    25    1
    35    24    26   ar
    36    20    15   ar
    37    26    21   ar
    38     9     1   ar
    39    37    32   ar
    40     8     4   ar
    41    12     5    1
    42    29    30    1
@<TRIPOS>MOLECULE
*****
 37 42 0 0 0
SMALL
GASTEIGER

@<TRIPOS>ATOM
      1 C         141.2688  139.3237  163.2589 C.ar    1  UNL1        0.1642
      2 N         141.9925  140.6205  163.4702 N.ar    1  UNL1       -0.2121
      3 C         141.8560  141.3520  164.7727 C.ar    1  UNL1        0.1320
      4 C         140.9959  140.7867  165.8638 C.ar    1  UNL1        0.0515
      5 C         140.6723  141.2786  167.2434 C.ar    1  UNL1       -0.0155
      6 C         139.7487  140.2859  167.8848 C.ar    1  UNL1        0.0049
      7 S         139.5014  139.1804  166.9016 S.2     1  UNL1       -0.0725
      8 C         140.2722  139.4898  165.6525 C.ar    1  UNL1        0.1144
      9 N         140.4087  138.7584  164.3501 N.ar    1  UNL1       -0.2200
     10 C         139.4251  140.7779  169.2644 C.3     1  UNL1        0.0330
     11 C         140.1488  142.0746  169.4756 C.3     1  UNL1        0.0099
     12 C         140.9196  142.3842  168.2266 C.3     1  UNL1        0.0271
     13 C         141.0667  139.2835  160.6690 C.2     1  UNL1        0.0032
     14 C         141.4052  138.5922  161.9565 C.2     1  UNL1        0.0388
     15 C         140.1563  137.6857  157.1522 C.ar    1  UNL1        0.1547
     16 C         140.0198  138.4171  158.4547 C.ar    1  UNL1        0.0384
     17 C         141.2031  138.5520  159.3666 C.ar    1  UNL1        0.0032
     18 C         142.5227  137.9554  158.9761 C.ar    1  UNL1        0.0017
     19 C         142.6593  137.2239  157.6737 C.ar    1  UNL1        0.0206
     20 C         141.4760  137.0891  156.7618 C.ar    1  UNL1        0.0994
     21 N         141.6124  136.3576  155.4594 N.ar    1  UNL1       -0.2839
     22 C         141.9576  136.9718  154.1351 C.ar    1  UNL1        0.1826
     23 N         141.9862  135.8772  153.1098 N.ar    1  UNL1       -0.2280
     24 C         141.6586  134.5866  153.8004 C.ar    1  UNL1        0.0786
     25 C         141.5764  133.2362  153.1526 C.3     1  UNL1        0.0538
     26 C         141.4276  134.8834  155.2524 C.ar    1  UNL1        0.0963
     27 C         138.6895  138.6109  155.2176 C.3     1  UNL1        0.2525
     28 O         138.9729  137.5507  156.2402 O.3     1  UNL1       -0.4700
     29 N         142.5797  142.6487  164.9839 N.pl3   1  UNL1       -0.3144
     30 H         143.4271  142.6636  165.4849 H       1  UNL1        0.1485
     31 C         142.0123  143.9229  164.4319 C.3     1  UNL1        0.1154
     32 C         140.5514  144.0131  164.1036 C.ar    1  UNL1       -0.0026
     33 C         139.5522  144.2677  165.1930 C.ar    1  UNL1       -0.0026
     34 C         138.0914  144.3579  164.8645 C.ar    1  UNL1       -0.0003
     35 C         137.6298  144.1935  163.4468 C.ar    1  UNL1       -0.0000
     36 C         138.6289  143.9388  162.3575 C.ar    1  UNL1       -0.0003
     37 C         140.0898  143.8486  162.6858 C.ar    1  UNL1       -0.0026
@<TRIPOS>BOND
     1    27    28    1
     2    28    15    1
     3    15    16   ar
     4    16    17   ar
     5    17    13    1
     6    13    14    2
     7    14     1    1
     8     1     2   ar
     9     2     3   ar
    10     3    29    1
    11    29    31    1
    12    31    32    1
    13    32    33   ar
    14    33    34   ar
    15    34    35   ar
    16    35    36   ar
    17    36    37   ar
    18     3     4   ar
    19     4     5   ar
    20     5     6   ar
    21     6     7   ar
    22     7     8   ar
    23     8     9   ar
    24     6    10    1
    25    10    11    1
    26    11    12    1
    27    17    18   ar
    28    18    19   ar
    29    19    20   ar
    30    20    21    1
    31    21    22   ar
    32    22    23   ar
    33    23    24   ar
    34    24    25    1
    35    24    26   ar
    36    20    15   ar
    37    26    21   ar
    38     9     1   ar
    39    37    32   ar
    40     8     4   ar
    41    12     5    1
    42    29    30    1
@<TRIPOS>MOLECULE
*****
 37 42 0 0 0
SMALL
GASTEIGER

@<TRIPOS>ATOM
      1 C         142.8360  139.9885  160.4111 C.ar    1  UNL1        0.1642
      2 N         142.1645  141.2757  160.0337 N.ar    1  UNL1       -0.2121
      3 C         142.3165  142.4853  160.9077 C.ar    1  UNL1        0.1320
      4 C         143.1398  142.4078  162.1591 C.ar    1  UNL1        0.0515
      5 C         143.4678  143.4271  163.2095 C.ar    1  UNL1       -0.0155
      6 C         144.3420  142.7700  164.2361 C.ar    1  UNL1        0.0049
      7 S         144.5543  141.3446  163.8202 S.2     1  UNL1       -0.0725
      8 C         143.8113  141.1206  162.5365 C.ar    1  UNL1        0.1144
      9 N         143.6594  139.9110  161.6625 N.ar    1  UNL1       -0.2200
     10 C         144.6701  143.7894  165.2865 C.3     1  UNL1        0.0330
     11 C         143.9986  145.0764  164.9090 C.3     1  UNL1        0.0099
     12 C         143.2555  144.8526  163.6254 C.3     1  UNL1        0.0271
     13 C         142.0184  138.8998  158.1984 C.2     1  UNL1        0.0032
     14 C         142.6841  138.7790  159.5372 C.2     1  UNL1        0.0388
     15 C         142.7814  135.4262  156.4372 C.ar    1  UNL1        0.1547
     16 C         142.9333  136.6358  157.3112 C.ar    1  UNL1        0.0384
     17 C         141.8665  137.6902  157.3245 C.ar    1  UNL1        0.0032
     18 C         140.6479  137.5350  156.4638 C.ar    1  UNL1        0.0017
     19 C         140.4959  136.3254  155.5898 C.ar    1  UNL1        0.0206
     20 C         141.5627  135.2710  155.5765 C.ar    1  UNL1        0.0994
     21 N         141.4108  134.0615  154.7026 N.ar    1  UNL1       -0.2839
     22 C         141.5209  134.0349  153.2069 C.ar    1  UNL1        0.1826
     23 N         141.3003  132.6231  152.7508 N.ar    1  UNL1       -0.2280
     24 C         141.0539  131.7770  153.9646 C.ar    1  UNL1        0.0786
     25 C         140.7861  130.3011  153.9711 C.3     1  UNL1        0.0538
     26 C         141.1222  132.6659  155.1709 C.ar    1  UNL1        0.0963
     27 C         144.0670  133.5110  157.6328 C.3     1  UNL1        0.2525
     28 O         143.8482  134.3717  156.4240 O.3     1  UNL1       -0.4700
     29 N         141.6450  143.7724  160.5302 N.pl3   1  UNL1       -0.3144
     30 H         142.1864  144.5510  160.2659 H       1  UNL1        0.1485
     31 C         140.1485  143.8731  160.5554 C.3     1  UNL1        0.1154
     32 C         139.4166  143.8417  161.8644 C.ar    1  UNL1       -0.0026
     33 C         138.3344  142.8289  162.0944 C.ar    1  UNL1       -0.0026
     34 C         137.6025  142.7975  163.4034 C.ar    1  UNL1       -0.0003
     35 C         137.9529  143.7789  164.4823 C.ar    1  UNL1       -0.0000
     36 C         139.0351  144.7917  164.2523 C.ar    1  UNL1       -0.0003
     37 C         139.7670  144.8231  162.9434 C.ar    1  UNL1       -0.0026
@<TRIPOS>BOND
     1    27    28    1
     2    28    15    1
     3    15    16   ar
     4    16    17   ar
     5    17    13    1
     6    13    14    2
     7    14     1    1
     8     1     2   ar
     9     2     3   ar
    10     3    29    1
    11    29    31    1
    12    31    32    1
    13    32    33   ar
    14    33    34   ar
    15    34    35   ar
    16    35    36   ar
    17    36    37   ar
    18     3     4   ar
    19     4     5   ar
    20     5     6   ar
    21     6     7   ar
    22     7     8   ar
    23     8     9   ar
    24     6    10    1
    25    10    11    1
    26    11    12    1
    27    17    18   ar
    28    18    19   ar
    29    19    20   ar
    30    20    21    1
    31    21    22   ar
    32    22    23   ar
    33    23    24   ar
    34    24    25    1
    35    24    26   ar
    36    20    15   ar
    37    26    21   ar
    38     9     1   ar
    39    37    32   ar
    40     8     4   ar
    41    12     5    1
    42    29    30    1
@<TRIPOS>MOLECULE
*****
 37 42 0 0 0
SMALL
GASTEIGER

@<TRIPOS>ATOM
      1 C         140.1852  139.4040  161.2726 C.ar    1  UNL1        0.1642
      2 N         140.5590  138.9963  162.6670 N.ar    1  UNL1       -0.2121
      3 C         140.4304  139.9767  163.7949 C.ar    1  UNL1        0.1320
      4 C         139.9279  141.3647  163.5287 C.ar    1  UNL1        0.0515
      5 C         139.6969  142.5392  164.4327 C.ar    1  UNL1       -0.0155
      6 C         139.1803  143.6727  163.5971 C.ar    1  UNL1        0.0049
      7 S         139.0920  143.1988  162.1767 S.2     1  UNL1       -0.0725
      8 C         139.5541  141.7724  162.1343 C.ar    1  UNL1        0.1144
      9 N         139.6827  140.7920  161.0063 N.ar    1  UNL1       -0.2200
     10 C         138.9493  144.8472  164.5011 C.3     1  UNL1        0.0330
     11 C         139.3231  144.4395  165.8954 C.3     1  UNL1        0.0099
     12 C         139.7852  143.0131  165.8531 C.3     1  UNL1        0.0271
     13 C         141.0294  138.8176  158.8865 C.2     1  UNL1        0.0032
     14 C         140.3138  138.4237  160.1446 C.2     1  UNL1        0.0388
     15 C         142.5267  136.0234  156.4990 C.ar    1  UNL1        0.1547
     16 C         142.3981  137.0038  157.6270 C.ar    1  UNL1        0.0384
     17 C         141.1580  137.8373  157.7585 C.ar    1  UNL1        0.0032
     18 C         140.0465  137.6905  156.7621 C.ar    1  UNL1        0.0017
     19 C         140.1751  136.7101  155.6340 C.ar    1  UNL1        0.0206
     20 C         141.4152  135.8766  155.5025 C.ar    1  UNL1        0.0994
     21 N         141.5438  134.8963  154.3745 N.ar    1  UNL1       -0.2839
     22 C         141.7888  135.2365  152.9343 C.ar    1  UNL1        0.1826
     23 N         141.8465  133.9541  152.1584 N.ar    1  UNL1       -0.2280
     24 C         141.6371  132.8213  153.1190 C.ar    1  UNL1        0.0786
     25 C         141.6181  131.3623  152.7711 C.3     1  UNL1        0.0538
     26 C         141.4501  133.4035  154.4887 C.ar    1  UNL1        0.0963
     27 C         143.9315  133.9535  157.2008 C.3     1  UNL1        0.2525
     28 O         143.7669  135.1899  156.3675 O.3     1  UNL1       -0.4700
     29 N         140.8043  139.5690  165.1892 N.pl3   1  UNL1       -0.3144
     30 H         140.1033  139.4338  165.8672 H       1  UNL1        0.1485
     31 C         142.2461  139.3673  165.5505 C.3     1  UNL1        0.1154
     32 C         143.2829  140.3384  165.0690 C.ar    1  UNL1       -0.0026
     33 C         144.3538  139.8840  164.1220 C.ar    1  UNL1       -0.0026
     34 C         145.3906  140.8552  163.6406 C.ar    1  UNL1       -0.0003
     35 C         145.3566  142.2807  164.1060 C.ar    1  UNL1       -0.0000
     36 C         144.2857  142.7351  165.0529 C.ar    1  UNL1       -0.0003
     37 C         143.2489  141.7640  165.5344 C.ar    1  UNL1       -0.0026
@<TRIPOS>BOND
     1    27    28    1
     2    28    15    1
     3    15    16   ar
     4    16    17   ar
     5    17    13    1
     6    13    14    2
     7    14     1    1
     8     1     2   ar
     9     2     3   ar
    10     3    29    1
    11    29    31    1
    12    31    32    1
    13    32    33   ar
    14    33    34   ar
    15    34    35   ar
    16    35    36   ar
    17    36    37   ar
    18     3     4   ar
    19     4     5   ar
    20     5     6   ar
    21     6     7   ar
    22     7     8   ar
    23     8     9   ar
    24     6    10    1
    25    10    11    1
    26    11    12    1
    27    17    18   ar
    28    18    19   ar
    29    19    20   ar
    30    20    21    1
    31    21    22   ar
    32    22    23   ar
    33    23    24   ar
    34    24    25    1
    35    24    26   ar
    36    20    15   ar
    37    26    21   ar
    38     9     1   ar
    39    37    32   ar
    40     8     4   ar
    41    12     5    1
    42    29    30    1
@<TRIPOS>MOLECULE
*****
 37 42 0 0 0
SMALL
GASTEIGER

@<TRIPOS>ATOM
      1 C         140.1467  139.7194  160.9507 C.ar    1  UNL1        0.1642
      2 N         141.1980  139.7399  162.0206 N.ar    1  UNL1       -0.2121
      3 C         141.0976  140.7196  163.1519 C.ar    1  UNL1        0.1320
      4 C         139.9462  141.6789  163.2135 C.ar    1  UNL1        0.0515
      5 C         139.5837  142.7500  164.1992 C.ar    1  UNL1       -0.0155
      6 C         138.3085  143.3915  163.7385 C.ar    1  UNL1        0.0049
      7 S         137.8828  142.7170  162.4682 S.2     1  UNL1       -0.0725
      8 C         138.8950  141.6585  162.1436 C.ar    1  UNL1        0.1144
      9 N         138.9952  140.6788  161.0123 N.ar    1  UNL1       -0.2200
     10 C         137.9460  144.4626  164.7241 C.3     1  UNL1        0.0330
     11 C         138.9972  144.4830  165.7939 C.3     1  UNL1        0.0099
     12 C         140.0094  143.4245  165.4695 C.3     1  UNL1        0.0271
     13 C         141.2750  138.9373  158.7450 C.2     1  UNL1        0.0032
     14 C         140.2470  138.7397  159.8193 C.2     1  UNL1        0.0388
     15 C         140.3579  136.8629  155.4883 C.ar    1  UNL1        0.1547
     16 C         140.2576  137.8426  156.6197 C.ar    1  UNL1        0.0384
     17 C         141.3752  137.9575  157.6136 C.ar    1  UNL1        0.0032
     18 C         142.5930  137.0927  157.4760 C.ar    1  UNL1        0.0017
     19 C         142.6933  136.1129  156.3447 C.ar    1  UNL1        0.0206
     20 C         141.5757  135.9981  155.3508 C.ar    1  UNL1        0.0994
     21 N         141.6760  135.0183  154.2194 N.ar    1  UNL1       -0.2839
     22 C         141.7002  135.3579  152.7586 C.ar    1  UNL1        0.1826
     23 N         141.8088  134.0764  151.9865 N.ar    1  UNL1       -0.2280
     24 C         141.8517  132.9448  152.9702 C.ar    1  UNL1        0.0786
     25 C         141.9581  131.4871  152.6332 C.3     1  UNL1        0.0538
     26 C         141.7697  133.5269  154.3502 C.ar    1  UNL1        0.0963
     27 C         138.0269  137.6201  154.6260 C.3     1  UNL1        0.2525
     28 O         139.2402  136.7480  154.4944 O.3     1  UNL1       -0.4700
     29 N         142.1489  140.7400  164.2218 N.pl3   1  UNL1       -0.3144
     30 H         143.0195  141.1657  164.0483 H       1  UNL1        0.1485
     31 C         141.8736  140.1118  165.5558 C.3     1  UNL1        0.1154
     32 C         140.5807  139.3890  165.7920 C.ar    1  UNL1       -0.0026
     33 C         139.5990  139.9166  166.7960 C.ar    1  UNL1       -0.0026
     34 C         138.3061  139.1936  167.0321 C.ar    1  UNL1       -0.0003
     35 C         137.9949  137.9432  166.2643 C.ar    1  UNL1       -0.0000
     36 C         138.9765  137.4156  165.2604 C.ar    1  UNL1       -0.0003
     37 C         140.2694  138.1385  165.0242 C.ar    1  UNL1       -0.0026
@<TRIPOS>BOND
     1    27    28    1
     2    28    15    1
     3    15    16   ar
     4    16    17   ar
     5    17    13    1
     6    13    14    2
     7    14     1    1
     8     1     2   ar
     9     2     3   ar
    10     3    29    1
    11    29    31    1
    12    31    32    1
    13    32    33   ar
    14    33    34   ar
    15    34    35   ar
    16    35    36   ar
    17    36    37   ar
    18     3     4   ar
    19     4     5   ar
    20     5     6   ar
    21     6     7   ar
    22     7     8   ar
    23     8     9   ar
    24     6    10    1
    25    10    11    1
    26    11    12    1
    27    17    18   ar
    28    18    19   ar
    29    19    20   ar
    30    20    21    1
    31    21    22   ar
    32    22    23   ar
    33    23    24   ar
    34    24    25    1
    35    24    26   ar
    36    20    15   ar
    37    26    21   ar
    38     9     1   ar
    39    37    32   ar
    40     8     4   ar
    41    12     5    1
    42    29    30    1
@<TRIPOS>MOLECULE
*****
 37 42 0 0 0
SMALL
GASTEIGER

@<TRIPOS>ATOM
      1 C         141.5586  142.6714  164.1298 C.ar    1  UNL1        0.1642
      2 N         142.3615  141.4050  164.0901 N.ar    1  UNL1       -0.2121
      3 C         142.5607  140.6037  165.3424 C.ar    1  UNL1        0.1320
      4 C         141.9571  141.0687  166.6344 C.ar    1  UNL1        0.0515
      5 C         141.9832  140.4928  168.0191 C.ar    1  UNL1       -0.0155
      6 C         141.1964  141.4032  168.9148 C.ar    1  UNL1        0.0049
      7 S         140.6841  142.5419  168.0835 S.2     1  UNL1       -0.0725
      8 C         141.1542  142.3352  166.6741 C.ar    1  UNL1        0.1144
      9 N         140.9549  143.1365  165.4219 N.ar    1  UNL1       -0.2200
     10 C         141.2224  140.8273  170.2995 C.3     1  UNL1        0.0330
     11 C         142.0253  139.5609  170.2597 C.3     1  UNL1        0.0099
     12 C         142.4955  139.3541  168.8504 C.3     1  UNL1        0.0271
     13 C         141.0173  142.7813  161.5911 C.2     1  UNL1        0.0032
     14 C         141.3593  143.4728  162.8776 C.2     1  UNL1        0.0388
     15 C         140.0496  143.7318  157.8616 C.ar    1  UNL1        0.1547
     16 C         140.2489  142.9305  159.1138 C.ar    1  UNL1        0.0384
     17 C         140.8181  143.5826  160.3389 C.ar    1  UNL1        0.0032
     18 C         141.1880  145.0359  160.3116 C.ar    1  UNL1        0.0017
     19 C         140.9888  145.8373  159.0594 C.ar    1  UNL1        0.0206
     20 C         140.4196  145.1852  157.8344 C.ar    1  UNL1        0.0994
     21 N         140.2203  145.9865  156.5821 N.ar    1  UNL1       -0.2839
     22 C         139.1621  147.0261  156.3596 C.ar    1  UNL1        0.1826
     23 N         139.3321  147.5710  154.9724 N.ar    1  UNL1       -0.2280
     24 C         140.4953  146.8683  154.3376 C.ar    1  UNL1        0.0786
     25 C         141.0179  147.1035  152.9514 C.3     1  UNL1        0.0538
     26 C         141.0443  145.8890  155.3324 C.ar    1  UNL1        0.0963
     27 C         138.0261  143.2431  156.3069 C.3     1  UNL1        0.2525
     28 O         139.4804  143.0797  156.6364 O.3     1  UNL1       -0.4700
     29 N         143.3636  139.3373  165.3026 N.pl3   1  UNL1       -0.3144
     30 H         144.3451  139.3744  165.3704 H       1  UNL1        0.1485
     31 C         142.6712  138.0144  165.1596 C.3     1  UNL1        0.1154
     32 C         141.3822  137.9210  164.3981 C.ar    1  UNL1       -0.0026
     33 C         140.0803  137.8216  165.1365 C.ar    1  UNL1       -0.0026
     34 C         138.7914  137.7282  164.3749 C.ar    1  UNL1       -0.0003
     35 C         138.8043  137.7342  162.8750 C.ar    1  UNL1       -0.0000
     36 C         140.1061  137.8336  162.1366 C.ar    1  UNL1       -0.0003
     37 C         141.3951  137.9270  162.8981 C.ar    1  UNL1       -0.0026
@<TRIPOS>BOND
     1    27    28    1
     2    28    15    1
     3    15    16   ar
     4    16    17   ar
     5    17    13    1
     6    13    14    2
     7    14     1    1
     8     1     2   ar
     9     2     3   ar
    10     3    29    1
    11    29    31    1
    12    31    32    1
    13    32    33   ar
    14    33    34   ar
    15    34    35   ar
    16    35    36   ar
    17    36    37   ar
    18     3     4   ar
    19     4     5   ar
    20     5     6   ar
    21     6     7   ar
    22     7     8   ar
    23     8     9   ar
    24     6    10    1
    25    10    11    1
    26    11    12    1
    27    17    18   ar
    28    18    19   ar
    29    19    20   ar
    30    20    21    1
    31    21    22   ar
    32    22    23   ar
    33    23    24   ar
    34    24    25    1
    35    24    26   ar
    36    20    15   ar
    37    26    21   ar
    38     9     1   ar
    39    37    32   ar
    40     8     4   ar
    41    12     5    1
    42    29    30    1
@<TRIPOS>MOLECULE
*****
 37 42 0 0 0
SMALL
GASTEIGER

@<TRIPOS>ATOM
      1 C         141.3023  138.1068  158.9401 C.ar    1  UNL1        0.1642
      2 N         142.4730  137.2482  158.5626 N.ar    1  UNL1       -0.2121
      3 C         142.5373  136.6249  157.1997 C.ar    1  UNL1        0.1320
      4 C         141.4312  136.8601  156.2144 C.ar    1  UNL1        0.0515
      5 C         141.2209  136.3818  154.8083 C.ar    1  UNL1       -0.0155
      6 C         139.9203  136.9447  154.3168 C.ar    1  UNL1        0.0049
      7 S         139.3267  137.7709  155.4191 S.2     1  UNL1       -0.0725
      8 C         140.2605  137.7187  156.5919 C.ar    1  UNL1        0.1144
      9 N         140.1961  138.3420  157.9547 N.ar    1  UNL1       -0.2200
     10 C         139.7099  136.4663  152.9108 C.3     1  UNL1        0.0330
     11 C         140.8806  135.6078  152.5333 C.3     1  UNL1        0.0099
     12 C         141.8144  135.5555  153.7061 C.3     1  UNL1        0.0271
     13 C         140.3748  138.1193  161.3670 C.2     1  UNL1        0.0032
     14 C         141.2379  138.7301  160.3029 C.2     1  UNL1        0.0388
     15 C         139.1694  140.3601  164.4124 C.ar    1  UNL1        0.1547
     16 C         139.2338  139.7368  163.0496 C.ar    1  UNL1        0.0384
     17 C         140.3104  138.7426  162.7298 C.ar    1  UNL1        0.0032
     18 C         141.3226  138.3717  163.7727 C.ar    1  UNL1        0.0017
     19 C         141.2582  138.9949  165.1356 C.ar    1  UNL1        0.0206
     20 C         140.1816  139.9892  165.4554 C.ar    1  UNL1        0.0994
     21 N         140.1172  140.6125  166.8183 N.ar    1  UNL1       -0.2839
     22 C         139.5702  139.9682  168.0575 C.ar    1  UNL1        0.1826
     23 N         139.7034  140.9470  169.1863 N.ar    1  UNL1       -0.2280
     24 C         140.3327  142.1963  168.6447 C.ar    1  UNL1        0.0786
     25 C         140.6504  143.4349  169.4289 C.3     1  UNL1        0.0538
     26 C         140.5884  141.9896  167.1812 C.ar    1  UNL1        0.0963
     27 C         137.5591  142.2540  163.6572 C.3     1  UNL1        0.2525
     28 O         138.0927  141.3544  164.7324 O.3     1  UNL1       -0.4700
     29 N         143.7080  135.7663  156.8222 N.pl3   1  UNL1       -0.3144
     30 H         144.3958  136.1136  156.2094 H       1  UNL1        0.1485
     31 C         143.8307  134.3787  157.3785 C.3     1  UNL1        0.1154
     32 C         143.5286  133.1933  156.5105 C.ar    1  UNL1       -0.0026
     33 C         144.6227  132.2357  156.1413 C.ar    1  UNL1       -0.0026
     34 C         144.3205  131.0503  155.2733 C.ar    1  UNL1       -0.0003
     35 C         142.9244  130.8224  154.7743 C.ar    1  UNL1       -0.0000
     36 C         141.8304  131.7799  155.1434 C.ar    1  UNL1       -0.0003
     37 C         142.1325  132.9653  156.0115 C.ar    1  UNL1       -0.0026
@<TRIPOS>BOND
     1    27    28    1
     2    28    15    1
     3    15    16   ar
     4    16    17   ar
     5    17    13    1
     6    13    14    2
     7    14     1    1
     8     1     2   ar
     9     2     3   ar
    10     3    29    1
    11    29    31    1
    12    31    32    1
    13    32    33   ar
    14    33    34   ar
    15    34    35   ar
    16    35    36   ar
    17    36    37   ar
    18     3     4   ar
    19     4     5   ar
    20     5     6   ar
    21     6     7   ar
    22     7     8   ar
    23     8     9   ar
    24     6    10    1
    25    10    11    1
    26    11    12    1
    27    17    18   ar
    28    18    19   ar
    29    19    20   ar
    30    20    21    1
    31    21    22   ar
    32    22    23   ar
    33    23    24   ar
    34    24    25    1
    35    24    26   ar
    36    20    15   ar
    37    26    21   ar
    38     9     1   ar
    39    37    32   ar
    40     8     4   ar
    41    12     5    1
    42    29    30    1
