@<TRIPOS>MOLECULE
*****
 27 30 0 0 0
SMALL
GASTEIGER

@<TRIPOS>ATOM
      1 C         141.2398  138.7027  158.0364 C.3     1  UNL1        0.1355
      2 C         141.7545  137.3935  157.5158 C.3     1  UNL1        0.0700
      3 C         143.0396  137.6570  156.7882 C.3     1  UNL1        0.1834
      4 C         143.3190  139.1290  156.8593 C.3     1  UNL1        0.1130
      5 N         142.2067  139.7752  157.6307 N.3     1  UNL1       -0.2882
      6 H         141.7341  140.4639  157.0452 H       1  UNL1        0.1237
      7 O         138.7155  139.3107  158.1267 O.2     1  UNL1       -0.2734
      8 C         139.9794  138.9040  158.8244 C.2     1  UNL1        0.2401
      9 N         139.9830  138.6985  160.3103 N.am    1  UNL1       -0.2770
     10 C         141.2978  138.2930  160.9080 C.3     1  UNL1        0.0949
     11 C         141.6256  138.0146  162.3451 C.3     1  UNL1        0.0388
     12 C         140.7198  138.0728  163.5391 C.3     1  UNL1        0.0739
     13 N         139.2624  138.4237  163.5913 N.3     1  UNL1       -0.2725
     14 C         138.3508  138.8033  162.4621 C.3     1  UNL1        0.0938
     15 C         138.6716  138.9255  161.0019 C.3     1  UNL1        0.1107
     16 C         138.6333  138.3909  164.9526 C.3     1  UNL1        0.0576
     17 C         138.1343  139.4269  165.9158 C.3     1  UNL1        0.0160
     18 C         137.7437  138.3444  166.8778 C.3     1  UNL1        0.0028
     19 C         138.2427  137.3083  165.9148 C.3     1  UNL1        0.0160
     20 O         143.8949  136.6289  156.1090 O.3     1  UNL1       -0.4777
     21 C         143.4275  135.2066  156.0167 C.ar    1  UNL1        0.1386
     22 C         142.7642  134.7148  154.7644 C.ar    1  UNL1        0.0392
     23 C         142.2967  133.2926  154.6721 C.ar    1  UNL1        0.0327
     24 C         142.4924  132.3620  155.8322 C.ar    1  UNL1        0.1403
     25 F         142.0249  130.9397  155.7399 F       1  UNL1       -0.2042
     26 C         143.1557  132.8538  157.0845 C.ar    1  UNL1        0.0327
     27 C         143.6231  134.2761  157.1767 C.ar    1  UNL1        0.0392
@<TRIPOS>BOND
     1     7     8    2
     2     1     8    1
     3     1     2    1
     4     2     3    1
     5     3    20    1
     6    20    21    1
     7    21    22   ar
     8    22    23   ar
     9    23    24   ar
    10    24    25    1
    11    24    26   ar
    12    26    27   ar
    13     3     4    1
    14     4     5    1
    15     8     9   am
    16     9    10    1
    17    10    11    1
    18    11    12    1
    19    12    13    1
    20    13    16    1
    21    16    17    1
    22    17    18    1
    23    18    19    1
    24    13    14    1
    25    14    15    1
    26     5     1    1
    27    15     9    1
    28    27    21   ar
    29    19    16    1
    30     5     6    1
@<TRIPOS>MOLECULE
*****
 27 30 0 0 0
SMALL
GASTEIGER

@<TRIPOS>ATOM
      1 C         138.9716  138.9268  165.5326 C.3     1  UNL1        0.1355
      2 C         139.7029  139.6380  166.6323 C.3     1  UNL1        0.0700
      3 C         138.8820  139.5263  167.8828 C.3     1  UNL1        0.1834
      4 C         137.6434  138.7461  167.5559 C.3     1  UNL1        0.1130
      5 N         137.6987  138.3755  166.1035 N.3     1  UNL1       -0.2882
      6 H         136.8982  138.7749  165.6136 H       1  UNL1        0.1237
      7 O         140.2187  137.5849  163.6904 O.2     1  UNL1       -0.2734
      8 C         139.4322  138.7907  164.1116 C.2     1  UNL1        0.2401
      9 N         139.1065  139.8604  163.1119 N.am    1  UNL1       -0.2770
     10 C         138.3163  141.0226  163.6365 C.3     1  UNL1        0.0949
     11 C         137.8385  142.2380  162.8985 C.3     1  UNL1        0.0388
     12 C         138.0327  142.5913  161.4538 C.3     1  UNL1        0.0739
     13 N         138.7527  141.8166  160.3901 N.3     1  UNL1       -0.2725
     14 C         139.4564  140.4972  160.5085 C.3     1  UNL1        0.0938
     15 C         139.6138  139.6267  161.7199 C.3     1  UNL1        0.1107
     16 C         138.7716  142.4443  159.0279 C.3     1  UNL1        0.0576
     17 C         138.0289  142.2166  157.7447 C.3     1  UNL1        0.0160
     18 C         138.7983  143.3320  157.1014 C.3     1  UNL1        0.0028
     19 C         139.5411  143.5598  158.3845 C.3     1  UNL1        0.0160
     20 O         139.2374  140.0951  169.2245 O.3     1  UNL1       -0.4777
     21 C         140.5856  140.7153  169.4430 C.ar    1  UNL1        0.1386
     22 C         140.7604  142.1985  169.3032 C.ar    1  UNL1        0.0392
     23 C         142.1085  142.8187  169.5216 C.ar    1  UNL1        0.0327
     24 C         143.2819  141.9558  169.8799 C.ar    1  UNL1        0.1403
     25 F         144.6301  142.5760  170.0984 F       1  UNL1       -0.2042
     26 C         143.1071  140.4726  170.0197 C.ar    1  UNL1        0.0327
     27 C         141.7590  139.8524  169.8012 C.ar    1  UNL1        0.0392
@<TRIPOS>BOND
     1     7     8    2
     2     1     8    1
     3     1     2    1
     4     2     3    1
     5     3    20    1
     6    20    21    1
     7    21    22   ar
     8    22    23   ar
     9    23    24   ar
    10    24    25    1
    11    24    26   ar
    12    26    27   ar
    13     3     4    1
    14     4     5    1
    15     8     9   am
    16     9    10    1
    17    10    11    1
    18    11    12    1
    19    12    13    1
    20    13    16    1
    21    16    17    1
    22    17    18    1
    23    18    19    1
    24    13    14    1
    25    14    15    1
    26     5     1    1
    27    15     9    1
    28    27    21   ar
    29    19    16    1
    30     5     6    1
@<TRIPOS>MOLECULE
*****
 27 30 0 0 0
SMALL
GASTEIGER

@<TRIPOS>ATOM
      1 C         138.7727  138.9855  163.0759 C.3     1  UNL1        0.1355
      2 C         139.0188  140.1866  163.9401 C.3     1  UNL1        0.0700
      3 C         139.0179  139.7362  165.3709 C.3     1  UNL1        0.1834
      4 C         138.7712  138.2568  165.3909 C.3     1  UNL1        0.1130
      5 N         138.6197  137.7929  163.9726 N.3     1  UNL1       -0.2882
      6 H         137.6977  137.3769  163.8411 H       1  UNL1        0.1237
      7 O         137.4097  139.3426  160.8931 O.2     1  UNL1       -0.2734
      8 C         138.6935  138.9784  161.5780 C.2     1  UNL1        0.2401
      9 N         139.8982  138.6072  160.7650 N.am    1  UNL1       -0.2770
     10 C         141.1299  138.2603  161.5478 C.3     1  UNL1        0.0949
     11 C         142.4795  137.8525  161.0356 C.3     1  UNL1        0.0388
     12 C         142.9307  137.6908  159.6143 C.3     1  UNL1        0.0739
     13 N         142.1438  137.8970  158.3540 N.3     1  UNL1       -0.2725
     14 C         140.7113  138.3158  158.2039 C.3     1  UNL1        0.0938
     15 C         139.7120  138.6319  159.2769 C.3     1  UNL1        0.1107
     16 C         142.8877  137.6519  157.0748 C.3     1  UNL1        0.0576
     17 C         143.4541  138.5237  155.9934 C.3     1  UNL1        0.0160
     18 C         143.9399  137.3054  155.2657 C.3     1  UNL1        0.0028
     19 C         143.3736  136.4336  156.3469 C.3     1  UNL1        0.0160
     20 O         139.2270  140.6115  166.5710 O.3     1  UNL1       -0.4777
     21 C         140.2248  140.2200  167.6202 C.ar    1  UNL1        0.1386
     22 C         139.8273  140.2098  169.0666 C.ar    1  UNL1        0.0392
     23 C         140.8251  139.8183  170.1159 C.ar    1  UNL1        0.0327
     24 C         142.2204  139.4369  169.7189 C.ar    1  UNL1        0.1403
     25 F         143.2182  139.0454  170.7682 F       1  UNL1       -0.2042
     26 C         142.6179  139.4471  168.2725 C.ar    1  UNL1        0.0327
     27 C         141.6200  139.8386  167.2233 C.ar    1  UNL1        0.0392
@<TRIPOS>BOND
     1     7     8    2
     2     1     8    1
     3     1     2    1
     4     2     3    1
     5     3    20    1
     6    20    21    1
     7    21    22   ar
     8    22    23   ar
     9    23    24   ar
    10    24    25    1
    11    24    26   ar
    12    26    27   ar
    13     3     4    1
    14     4     5    1
    15     8     9   am
    16     9    10    1
    17    10    11    1
    18    11    12    1
    19    12    13    1
    20    13    16    1
    21    16    17    1
    22    17    18    1
    23    18    19    1
    24    13    14    1
    25    14    15    1
    26     5     1    1
    27    15     9    1
    28    27    21   ar
    29    19    16    1
    30     5     6    1
@<TRIPOS>MOLECULE
*****
 27 30 0 0 0
SMALL
GASTEIGER

@<TRIPOS>ATOM
      1 C         142.6942  138.4614  158.4401 C.3     1  UNL1        0.1355
      2 C         142.6998  137.1959  157.6347 C.3     1  UNL1        0.0700
      3 C         142.4806  137.5610  156.1963 C.3     1  UNL1        0.1834
      4 C         142.3397  139.0519  156.1128 C.3     1  UNL1        0.1130
      5 N         142.4717  139.6084  157.4995 N.3     1  UNL1       -0.2882
      6 H         141.6186  140.1055  157.7556 H       1  UNL1        0.1237
      7 O         144.2566  138.6988  160.5022 O.2     1  UNL1       -0.2734
      8 C         142.8788  138.5620  159.9252 C.2     1  UNL1        0.2401
      9 N         141.6856  138.5258  160.8335 N.am    1  UNL1       -0.2770
     10 C         140.3551  138.3867  160.1548 C.3     1  UNL1        0.0949
     11 C         138.9910  138.3209  160.7754 C.3     1  UNL1        0.0388
     12 C         138.6206  138.3781  162.2277 C.3     1  UNL1        0.0739
     13 N         139.5226  138.5151  163.4183 N.3     1  UNL1       -0.2725
     14 C         141.0179  138.6289  163.4506 C.3     1  UNL1        0.0938
     15 C         141.9805  138.6336  162.3002 C.3     1  UNL1        0.1107
     16 C         138.8389  138.5420  164.7531 C.3     1  UNL1        0.0576
     17 C         138.4372  137.5054  165.7602 C.3     1  UNL1        0.0160
     18 C         137.8720  138.5800  166.6409 C.3     1  UNL1        0.0028
     19 C         138.2736  139.6167  165.6339 C.3     1  UNL1        0.0160
     20 O         142.4141  136.6031  155.0439 O.3     1  UNL1       -0.4777
     21 C         142.4913  135.1256  155.2912 C.ar    1  UNL1        0.1386
     22 C         141.2588  134.2794  155.1693 C.ar    1  UNL1        0.0392
     23 C         141.3358  132.8021  155.4166 C.ar    1  UNL1        0.0327
     24 C         142.6454  132.1707  155.7859 C.ar    1  UNL1        0.1403
     25 F         142.7226  130.6933  156.0332 F       1  UNL1       -0.2042
     26 C         143.8780  133.0169  155.9078 C.ar    1  UNL1        0.0327
     27 C         143.8008  134.4944  155.6605 C.ar    1  UNL1        0.0392
@<TRIPOS>BOND
     1     7     8    2
     2     1     8    1
     3     1     2    1
     4     2     3    1
     5     3    20    1
     6    20    21    1
     7    21    22   ar
     8    22    23   ar
     9    23    24   ar
    10    24    25    1
    11    24    26   ar
    12    26    27   ar
    13     3     4    1
    14     4     5    1
    15     8     9   am
    16     9    10    1
    17    10    11    1
    18    11    12    1
    19    12    13    1
    20    13    16    1
    21    16    17    1
    22    17    18    1
    23    18    19    1
    24    13    14    1
    25    14    15    1
    26     5     1    1
    27    15     9    1
    28    27    21   ar
    29    19    16    1
    30     5     6    1
@<TRIPOS>MOLECULE
*****
 27 30 0 0 0
SMALL
GASTEIGER

@<TRIPOS>ATOM
      1 C         138.1056  140.9896  160.6013 C.3     1  UNL1        0.1355
      2 C         138.8195  142.2515  160.9863 C.3     1  UNL1        0.0700
      3 C         138.3897  142.6220  162.3749 C.3     1  UNL1        0.1834
      4 C         137.4102  141.5892  162.8480 C.3     1  UNL1        0.1130
      5 N         137.2347  140.5804  161.7519 N.3     1  UNL1       -0.2882
      6 H         136.2588  140.5569  161.4561 H       1  UNL1        0.1237
      7 O         137.1263  140.3168  158.2909 O.2     1  UNL1       -0.2734
      8 C         138.2393  140.2645  159.2951 C.2     1  UNL1        0.2401
      9 N         139.4861  139.4871  158.9930 N.am    1  UNL1       -0.2770
     10 C         140.5364  139.4999  160.0639 C.3     1  UNL1        0.0949
     11 C         141.8778  138.8283  160.0662 C.3     1  UNL1        0.0388
     12 C         142.5000  137.9784  158.9984 C.3     1  UNL1        0.0739
     13 N         141.9346  137.5899  157.6645 N.3     1  UNL1       -0.2725
     14 C         140.6074  137.9554  157.0689 C.3     1  UNL1        0.0938
     15 C         139.5177  138.7998  157.6602 C.3     1  UNL1        0.1107
     16 C         142.8126  136.7209  156.8136 C.3     1  UNL1        0.0576
     17 C         143.7869  136.9652  155.6995 C.3     1  UNL1        0.0160
     18 C         144.0543  135.4920  155.6102 C.3     1  UNL1        0.0028
     19 C         143.0800  135.2476  156.7243 C.3     1  UNL1        0.0160
     20 O         138.8573  143.8158  163.1535 O.3     1  UNL1       -0.4777
     21 C         140.2846  143.9039  163.6061 C.ar    1  UNL1        0.1386
     22 C         140.8858  142.7911  164.4124 C.ar    1  UNL1        0.0392
     23 C         142.3131  142.8791  164.8650 C.ar    1  UNL1        0.0327
     24 C         143.1394  144.0800  164.5113 C.ar    1  UNL1        0.1403
     25 F         144.5667  144.1682  164.9639 F       1  UNL1       -0.2042
     26 C         142.5382  145.1929  163.7050 C.ar    1  UNL1        0.0327
     27 C         141.1108  145.1048  163.2524 C.ar    1  UNL1        0.0392
@<TRIPOS>BOND
     1     7     8    2
     2     1     8    1
     3     1     2    1
     4     2     3    1
     5     3    20    1
     6    20    21    1
     7    21    22   ar
     8    22    23   ar
     9    23    24   ar
    10    24    25    1
    11    24    26   ar
    12    26    27   ar
    13     3     4    1
    14     4     5    1
    15     8     9   am
    16     9    10    1
    17    10    11    1
    18    11    12    1
    19    12    13    1
    20    13    16    1
    21    16    17    1
    22    17    18    1
    23    18    19    1
    24    13    14    1
    25    14    15    1
    26     5     1    1
    27    15     9    1
    28    27    21   ar
    29    19    16    1
    30     5     6    1
@<TRIPOS>MOLECULE
*****
 27 30 0 0 0
SMALL
GASTEIGER

@<TRIPOS>ATOM
      1 C         140.0224  138.8228  164.3581 C.3     1  UNL1        0.1355
      2 C         140.5766  139.1436  165.7146 C.3     1  UNL1        0.0700
      3 C         139.4374  139.5727  166.5911 C.3     1  UNL1        0.1834
      4 C         138.1793  139.5171  165.7763 C.3     1  UNL1        0.1130
      5 N         138.5408  139.0536  164.3963 N.3     1  UNL1       -0.2882
      6 H         138.2838  139.7664  163.7134 H       1  UNL1        0.1237
      7 O         140.9381  136.8862  162.8881 O.2     1  UNL1       -0.2734
      8 C         140.8113  138.3536  163.1718 C.2     1  UNL1        0.2401
      9 N         141.4736  139.3519  162.2691 N.am    1  UNL1       -0.2770
     10 C         141.2846  140.7925  162.6421 C.3     1  UNL1        0.0949
     11 C         141.8126  142.0146  161.9509 C.3     1  UNL1        0.0388
     12 C         142.6600  142.0979  160.7161 C.3     1  UNL1        0.0739
     13 N         143.1887  140.9798  159.8673 N.3     1  UNL1       -0.2725
     14 C         143.0006  139.5022  160.0439 C.3     1  UNL1        0.0938
     15 C         142.2372  138.7777  161.1128 C.3     1  UNL1        0.1107
     16 C         144.0147  141.3941  158.6859 C.3     1  UNL1        0.0576
     17 C         144.5925  142.6894  158.1973 C.3     1  UNL1        0.0160
     18 C         145.1829  141.9801  157.0149 C.3     1  UNL1        0.0028
     19 C         144.6053  140.6848  157.5033 C.3     1  UNL1        0.0160
     20 O         139.5387  139.9850  168.0298 O.3     1  UNL1       -0.4777
     21 C         140.8152  140.5738  168.5531 C.ar    1  UNL1        0.1386
     22 C         141.2537  141.9353  168.1014 C.ar    1  UNL1        0.0392
     23 C         142.5301  142.5242  168.6247 C.ar    1  UNL1        0.0327
     24 C         143.3681  141.7516  169.5997 C.ar    1  UNL1        0.1403
     25 F         144.6446  142.3405  170.1231 F       1  UNL1       -0.2042
     26 C         142.9296  140.3901  170.0515 C.ar    1  UNL1        0.0327
     27 C         141.6532  139.8013  169.5282 C.ar    1  UNL1        0.0392
@<TRIPOS>BOND
     1     7     8    2
     2     1     8    1
     3     1     2    1
     4     2     3    1
     5     3    20    1
     6    20    21    1
     7    21    22   ar
     8    22    23   ar
     9    23    24   ar
    10    24    25    1
    11    24    26   ar
    12    26    27   ar
    13     3     4    1
    14     4     5    1
    15     8     9   am
    16     9    10    1
    17    10    11    1
    18    11    12    1
    19    12    13    1
    20    13    16    1
    21    16    17    1
    22    17    18    1
    23    18    19    1
    24    13    14    1
    25    14    15    1
    26     5     1    1
    27    15     9    1
    28    27    21   ar
    29    19    16    1
    30     5     6    1
@<TRIPOS>MOLECULE
*****
 27 30 0 0 0
SMALL
GASTEIGER

@<TRIPOS>ATOM
      1 C         144.3953  142.3576  160.9854 C.3     1  UNL1        0.1355
      2 C         143.4212  143.2299  161.7205 C.3     1  UNL1        0.0700
      3 C         143.9285  143.4139  163.1202 C.3     1  UNL1        0.1834
      4 C         145.2159  142.6554  163.2500 C.3     1  UNL1        0.1130
      5 N         145.5044  142.0026  161.9308 N.3     1  UNL1       -0.2882
      6 H         145.5487  140.9903  162.0478 H       1  UNL1        0.1237
      7 O         144.6126  142.8729  158.4483 O.2     1  UNL1       -0.2734
      8 C         144.2803  141.9177  159.5561 C.2     1  UNL1        0.2401
      9 N         143.8330  140.5226  159.2344 N.am    1  UNL1       -0.2770
     10 C         143.5258  139.6492  160.4147 C.3     1  UNL1        0.0949
     11 C         143.0618  138.2228  160.4271 C.3     1  UNL1        0.0388
     12 C         142.7903  137.3176  159.2623 C.3     1  UNL1        0.0739
     13 N         142.9157  137.6150  157.7975 N.3     1  UNL1       -0.2725
     14 C         143.3437  138.8912  157.1356 C.3     1  UNL1        0.0938
     15 C         143.7519  140.1852  157.7752 C.3     1  UNL1        0.1107
     16 C         142.5671  136.4871  156.8721 C.3     1  UNL1        0.0576
     17 C         143.1568  135.1410  156.5714 C.3     1  UNL1        0.0160
     18 C         142.0741  134.8919  155.5635 C.3     1  UNL1        0.0028
     19 C         141.4844  136.2380  155.8642 C.3     1  UNL1        0.0160
     20 O         143.2647  144.2158  164.2002 O.3     1  UNL1       -0.4777
     21 C         141.7789  144.1336  164.3897 C.ar    1  UNL1        0.1386
     22 C         141.2004  143.1509  165.3643 C.ar    1  UNL1        0.0392
     23 C         139.7148  143.0687  165.5538 C.ar    1  UNL1        0.0327
     24 C         138.8076  143.9692  164.7689 C.ar    1  UNL1        0.1403
     25 F         137.3219  143.8870  164.9584 F       1  UNL1       -0.2042
     26 C         139.3861  144.9518  163.7943 C.ar    1  UNL1        0.0327
     27 C         140.8718  145.0340  163.6048 C.ar    1  UNL1        0.0392
@<TRIPOS>BOND
     1     7     8    2
     2     1     8    1
     3     1     2    1
     4     2     3    1
     5     3    20    1
     6    20    21    1
     7    21    22   ar
     8    22    23   ar
     9    23    24   ar
    10    24    25    1
    11    24    26   ar
    12    26    27   ar
    13     3     4    1
    14     4     5    1
    15     8     9   am
    16     9    10    1
    17    10    11    1
    18    11    12    1
    19    12    13    1
    20    13    16    1
    21    16    17    1
    22    17    18    1
    23    18    19    1
    24    13    14    1
    25    14    15    1
    26     5     1    1
    27    15     9    1
    28    27    21   ar
    29    19    16    1
    30     5     6    1
@<TRIPOS>MOLECULE
*****
 27 30 0 0 0
SMALL
GASTEIGER

@<TRIPOS>ATOM
      1 C         141.8602  137.9138  162.2486 C.3     1  UNL1        0.1355
      2 C         142.5641  138.8466  163.1891 C.3     1  UNL1        0.0700
      3 C         142.2991  138.3796  164.5898 C.3     1  UNL1        0.1834
      4 C         141.4316  137.1583  164.5149 C.3     1  UNL1        0.1130
      5 N         141.1603  136.8705  163.0680 N.3     1  UNL1       -0.2882
      6 H         140.1566  136.9065  162.8902 H       1  UNL1        0.1237
      7 O         142.9919  137.4276  159.9611 O.2     1  UNL1       -0.2734
      8 C         141.8569  138.0080  160.7516 C.2     1  UNL1        0.2401
      9 N         140.7186  138.6825  160.0450 N.am    1  UNL1       -0.2770
     10 C         139.6360  139.2281  160.9285 C.3     1  UNL1        0.0949
     11 C         138.3807  139.9482  160.5335 C.3     1  UNL1        0.0388
     12 C         137.8982  140.3005  159.1578 C.3     1  UNL1        0.0739
     13 N         138.5515  140.0198  157.8370 N.3     1  UNL1       -0.2725
     14 C         139.8489  139.3175  157.5659 C.3     1  UNL1        0.0938
     15 C         140.8133  138.7223  158.5486 C.3     1  UNL1        0.1107
     16 C         137.8094  140.5058  156.6275 C.3     1  UNL1        0.0576
     17 C         136.4182  141.0014  156.3648 C.3     1  UNL1        0.0160
     18 C         136.7598  141.1930  154.9168 C.3     1  UNL1        0.0028
     19 C         138.1510  140.6974  155.1794 C.3     1  UNL1        0.0160
     20 O         142.8118  139.0214  165.8449 O.3     1  UNL1       -0.4777
     21 C         141.8532  139.4302  166.9238 C.ar    1  UNL1        0.1386
     22 C         142.3170  139.5109  168.3480 C.ar    1  UNL1        0.0392
     23 C         141.3584  139.9197  169.4268 C.ar    1  UNL1        0.0327
     24 C         139.9361  140.2478  169.0816 C.ar    1  UNL1        0.1403
     25 F         138.9775  140.6566  170.1604 F       1  UNL1       -0.2042
     26 C         139.4723  140.1671  167.6573 C.ar    1  UNL1        0.0327
     27 C         140.4309  139.7583  166.5785 C.ar    1  UNL1        0.0392
@<TRIPOS>BOND
     1     7     8    2
     2     1     8    1
     3     1     2    1
     4     2     3    1
     5     3    20    1
     6    20    21    1
     7    21    22   ar
     8    22    23   ar
     9    23    24   ar
    10    24    25    1
    11    24    26   ar
    12    26    27   ar
    13     3     4    1
    14     4     5    1
    15     8     9   am
    16     9    10    1
    17    10    11    1
    18    11    12    1
    19    12    13    1
    20    13    16    1
    21    16    17    1
    22    17    18    1
    23    18    19    1
    24    13    14    1
    25    14    15    1
    26     5     1    1
    27    15     9    1
    28    27    21   ar
    29    19    16    1
    30     5     6    1
@<TRIPOS>MOLECULE
*****
 27 30 0 0 0
SMALL
GASTEIGER

@<TRIPOS>ATOM
      1 C         138.2862  141.1239  160.1468 C.3     1  UNL1        0.1355
      2 C         137.7341  140.6842  161.4704 C.3     1  UNL1        0.0700
      3 C         137.8371  141.8390  162.4223 C.3     1  UNL1        0.1834
      4 C         138.4528  142.9923  161.6870 C.3     1  UNL1        0.1130
      5 N         138.7304  142.5503  160.2807 N.3     1  UNL1       -0.2882
      6 H         139.7291  142.6216  160.0863 H       1  UNL1        0.1237
      7 O         137.2525  140.2855  157.9156 O.2     1  UNL1       -0.2734
      8 C         138.3780  140.2845  158.9072 C.2     1  UNL1        0.2401
      9 N         139.5954  139.4440  158.6589 N.am    1  UNL1       -0.2770
     10 C         140.6613  139.5155  159.7120 C.3     1  UNL1        0.0949
     11 C         141.9810  138.8037  159.7566 C.3     1  UNL1        0.0388
     12 C         142.5606  137.8448  158.7595 C.3     1  UNL1        0.0739
     13 N         141.9638  137.3607  157.4712 N.3     1  UNL1       -0.2725
     14 C         140.6399  137.7160  156.8621 C.3     1  UNL1        0.0938
     15 C         139.5859  138.6432  157.3907 C.3     1  UNL1        0.1107
     16 C         142.8016  136.3935  156.6887 C.3     1  UNL1        0.0576
     17 C         143.2566  134.9785  156.8916 C.3     1  UNL1        0.0160
     18 C         143.9866  135.0255  155.5821 C.3     1  UNL1        0.0028
     19 C         143.5317  136.4404  155.3791 C.3     1  UNL1        0.0160
     20 O         137.4009  141.8402  163.8575 O.3     1  UNL1       -0.4777
     21 C         138.3213  141.3200  164.9216 C.ar    1  UNL1        0.1386
     22 C         138.1513  139.9240  165.4434 C.ar    1  UNL1        0.0392
     23 C         139.0717  139.4039  166.5074 C.ar    1  UNL1        0.0327
     24 C         140.1621  140.2796  167.0497 C.ar    1  UNL1        0.1403
     25 F         141.0825  139.7595  168.1137 F       1  UNL1       -0.2042
     26 C         140.3321  141.6756  166.5278 C.ar    1  UNL1        0.0327
     27 C         139.4116  142.1957  165.4637 C.ar    1  UNL1        0.0392
@<TRIPOS>BOND
     1     7     8    2
     2     1     8    1
     3     1     2    1
     4     2     3    1
     5     3    20    1
     6    20    21    1
     7    21    22   ar
     8    22    23   ar
     9    23    24   ar
    10    24    25    1
    11    24    26   ar
    12    26    27   ar
    13     3     4    1
    14     4     5    1
    15     8     9   am
    16     9    10    1
    17    10    11    1
    18    11    12    1
    19    12    13    1
    20    13    16    1
    21    16    17    1
    22    17    18    1
    23    18    19    1
    24    13    14    1
    25    14    15    1
    26     5     1    1
    27    15     9    1
    28    27    21   ar
    29    19    16    1
    30     5     6    1
