@<TRIPOS>MOLECULE
*****
 30 34 0 0 0
SMALL
GASTEIGER

@<TRIPOS>ATOM
      1 C         141.3150  141.7529  171.4319 C.3     1  UNL1        0.0948
      2 C         140.8260  142.4712  170.2091 C.2     1  UNL1        0.2267
      3 O         139.9966  143.7130  170.3502 O.2     1  UNL1       -0.2748
      4 N         141.1664  141.9476  168.8454 N.am    1  UNL1       -0.2683
      5 C         140.6284  142.7399  167.6910 C.3     1  UNL1        0.1220
      6 C         140.7908  142.4813  166.2224 C.ar    1  UNL1        0.0147
      7 C         140.0889  143.5223  165.4016 C.ar    1  UNL1        0.0102
      8 C         140.1277  143.4483  163.9040 C.ar    1  UNL1        0.0575
      9 CL        139.4258  144.4893  163.0832 Cl      1  UNL1       -0.0823
     10 C         140.8684  142.3333  163.2271 C.ar    1  UNL1        0.0129
     11 C         141.5703  141.2923  164.0478 C.ar    1  UNL1        0.0182
     12 C         141.5315  141.3663  165.5455 C.ar    1  UNL1        0.0639
     13 N         142.2927  140.2346  166.1700 N.ar    1  UNL1       -0.2796
     14 C         142.5011  139.9384  167.6256 C.ar    1  UNL1        0.1671
     15 N         143.3333  138.6950  167.7310 N.ar    1  UNL1       -0.1315
     16 N         143.6392  138.2226  166.3406 N.ar    1  UNL1       -0.1333
     17 C         142.9961  139.1742  165.3758 C.ar    1  UNL1        0.1465
     18 C         141.9999  140.7007  168.8162 C.3     1  UNL1        0.1602
     19 C         143.0473  139.0816  163.8796 C.3     1  UNL1        0.0625
     20 C         142.0598  138.2225  163.1470 C.3     1  UNL1        0.0291
     21 C         142.1111  138.1299  161.6508 C.3     1  UNL1        0.0926
     22 N         143.1498  138.8964  160.8870 N.pl3   1  UNL1       -0.2932
     23 C         144.1374  139.7556  161.6196 C.3     1  UNL1        0.0926
     24 C         144.0862  139.8482  163.1158 C.3     1  UNL1        0.0291
     25 C         143.2011  138.8039  159.3907 C.ar    1  UNL1        0.1317
     26 C         142.6192  137.6104  158.6928 C.ar    1  UNL1        0.0343
     27 C         142.6705  137.5179  157.1965 C.ar    1  UNL1        0.0045
     28 C         143.3036  138.6187  156.3983 C.ar    1  UNL1        0.0208
     29 C         143.8855  139.8121  157.0962 C.ar    1  UNL1        0.1003
     30 N         143.8343  139.9047  158.5925 N.ar    1  UNL1       -0.2292
@<TRIPOS>BOND
     1     1     2    1
     2     2     3    2
     3     2     4   am
     4     4     5    1
     5     5     6    1
     6     6     7   ar
     7     7     8   ar
     8     8     9    1
     9     8    10   ar
    10    10    11   ar
    11    11    12   ar
    12    12    13    1
    13    13    14   ar
    14    14    15   ar
    15    15    16   ar
    16    16    17   ar
    17    17    19    1
    18    19    20    1
    19    20    21    1
    20    21    22    1
    21    22    25    1
    22    25    26   ar
    23    26    27   ar
    24    27    28   ar
    25    28    29   ar
    26    29    30   ar
    27    22    23    1
    28    23    24    1
    29    14    18    1
    30    18     4    1
    31    12     6   ar
    32    17    13   ar
    33    24    19    1
    34    30    25   ar
@<TRIPOS>MOLECULE
*****
 30 34 0 0 0
SMALL
GASTEIGER

@<TRIPOS>ATOM
      1 C         140.8626  140.9686  171.4418 C.3     1  UNL1        0.0948
      2 C         141.6229  141.5592  170.2914 C.2     1  UNL1        0.2267
      3 O         142.8012  142.4507  170.5498 O.2     1  UNL1       -0.2748
      4 N         141.2047  141.2583  168.8827 N.am    1  UNL1       -0.2683
      5 C         142.0316  141.8986  167.8074 C.3     1  UNL1        0.1220
      6 C         141.8731  141.7957  166.3194 C.ar    1  UNL1        0.0147
      7 C         142.9175  142.5969  165.6002 C.ar    1  UNL1        0.0102
      8 C         142.9371  142.6294  164.1007 C.ar    1  UNL1        0.0575
      9 CL        143.9815  143.4306  163.3815 Cl      1  UNL1       -0.0823
     10 C         141.9123  141.8606  163.3204 C.ar    1  UNL1        0.0129
     11 C         140.8680  141.0594  164.0396 C.ar    1  UNL1        0.0182
     12 C         140.8483  141.0269  165.5391 C.ar    1  UNL1        0.0639
     13 N         139.7291  140.1713  166.0541 N.ar    1  UNL1       -0.2796
     14 C         139.3582  139.8730  167.4766 C.ar    1  UNL1        0.1671
     15 N         138.1634  138.9662  167.4637 N.ar    1  UNL1       -0.1315
     16 N         137.7959  138.7040  166.0333 N.ar    1  UNL1       -0.1333
     17 C         138.7636  139.4487  165.1620 C.ar    1  UNL1        0.1465
     18 C         140.0149  140.3568  168.7354 C.3     1  UNL1        0.1602
     19 C         138.7653  139.4677  163.6622 C.3     1  UNL1        0.0625
     20 C         137.9614  140.4967  162.9241 C.3     1  UNL1        0.0291
     21 C         137.9632  140.5156  161.4243 C.3     1  UNL1        0.0926
     22 N         138.7689  139.5055  160.6624 N.pl3   1  UNL1       -0.2932
     23 C         139.5728  138.4765  161.4004 C.3     1  UNL1        0.0926
     24 C         139.5711  138.4575  162.9003 C.3     1  UNL1        0.0291
     25 C         138.7707  139.5244  159.1625 C.ar    1  UNL1        0.1317
     26 C         139.7102  138.6358  158.4024 C.ar    1  UNL1        0.0343
     27 C         139.7120  138.6547  156.9025 C.ar    1  UNL1        0.0045
     28 C         138.7743  139.5622  156.1628 C.ar    1  UNL1        0.0208
     29 C         137.8348  140.4508  156.9229 C.ar    1  UNL1        0.1003
     30 N         137.8330  140.4319  158.4228 N.ar    1  UNL1       -0.2292
@<TRIPOS>BOND
     1     1     2    1
     2     2     3    2
     3     2     4   am
     4     4     5    1
     5     5     6    1
     6     6     7   ar
     7     7     8   ar
     8     8     9    1
     9     8    10   ar
    10    10    11   ar
    11    11    12   ar
    12    12    13    1
    13    13    14   ar
    14    14    15   ar
    15    15    16   ar
    16    16    17   ar
    17    17    19    1
    18    19    20    1
    19    20    21    1
    20    21    22    1
    21    22    25    1
    22    25    26   ar
    23    26    27   ar
    24    27    28   ar
    25    28    29   ar
    26    29    30   ar
    27    22    23    1
    28    23    24    1
    29    14    18    1
    30    18     4    1
    31    12     6   ar
    32    17    13   ar
    33    24    19    1
    34    30    25   ar
@<TRIPOS>MOLECULE
*****
 30 34 0 0 0
SMALL
GASTEIGER

@<TRIPOS>ATOM
      1 C         142.8644  138.4352  169.9733 C.3     1  UNL1        0.0948
      2 C         141.9923  139.5990  169.6057 C.2     1  UNL1        0.2267
      3 O         141.1351  140.2527  170.6486 O.2     1  UNL1       -0.2748
      4 N         141.9775  140.1091  168.1952 N.am    1  UNL1       -0.2683
      5 C         141.0716  141.2758  167.9344 C.3     1  UNL1        0.1220
      6 C         140.8350  142.0066  166.6460 C.ar    1  UNL1        0.0147
      7 C         139.8455  143.1203  166.8214 C.ar    1  UNL1        0.0102
      8 C         139.4670  143.9784  165.6508 C.ar    1  UNL1        0.0575
      9 CL        138.4775  145.0921  165.8262 Cl      1  UNL1       -0.0823
     10 C         140.0780  143.7230  164.3049 C.ar    1  UNL1        0.0129
     11 C         141.0674  142.6093  164.1296 C.ar    1  UNL1        0.0182
     12 C         141.4459  141.7512  165.3001 C.ar    1  UNL1        0.0639
     13 N         142.4443  140.7018  164.9103 N.ar    1  UNL1       -0.2796
     14 C         143.0784  139.6487  165.7699 C.ar    1  UNL1        0.1671
     15 N         144.0079  138.8456  164.9092 N.ar    1  UNL1       -0.1315
     16 N         143.9484  139.4022  163.5176 N.ar    1  UNL1       -0.1333
     17 C         142.9820  140.5494  163.5182 C.ar    1  UNL1        0.1465
     18 C         142.8706  139.3850  167.2318 C.3     1  UNL1        0.1602
     19 C         142.6174  141.3956  162.3347 C.3     1  UNL1        0.0625
     20 C         141.4832  140.9877  161.4418 C.3     1  UNL1        0.0291
     21 C         141.1185  141.8339  160.2583 C.3     1  UNL1        0.0926
     22 N         141.8880  143.0882  159.9675 N.pl3   1  UNL1       -0.2932
     23 C         143.0222  143.4962  160.8603 C.3     1  UNL1        0.0926
     24 C         143.3869  142.6500  162.0439 C.3     1  UNL1        0.0291
     25 C         141.5234  143.9345  158.7839 C.ar    1  UNL1        0.1317
     26 C         140.1570  143.8235  158.1750 C.ar    1  UNL1        0.0343
     27 C         139.7924  144.6699  156.9914 C.ar    1  UNL1        0.0045
     28 C         140.7941  145.6270  156.4168 C.ar    1  UNL1        0.0208
     29 C         142.1605  145.7380  157.0256 C.ar    1  UNL1        0.1003
     30 N         142.5251  144.8917  158.2092 N.ar    1  UNL1       -0.2292
@<TRIPOS>BOND
     1     1     2    1
     2     2     3    2
     3     2     4   am
     4     4     5    1
     5     5     6    1
     6     6     7   ar
     7     7     8   ar
     8     8     9    1
     9     8    10   ar
    10    10    11   ar
    11    11    12   ar
    12    12    13    1
    13    13    14   ar
    14    14    15   ar
    15    15    16   ar
    16    16    17   ar
    17    17    19    1
    18    19    20    1
    19    20    21    1
    20    21    22    1
    21    22    25    1
    22    25    26   ar
    23    26    27   ar
    24    27    28   ar
    25    28    29   ar
    26    29    30   ar
    27    22    23    1
    28    23    24    1
    29    14    18    1
    30    18     4    1
    31    12     6   ar
    32    17    13   ar
    33    24    19    1
    34    30    25   ar
@<TRIPOS>MOLECULE
*****
 30 34 0 0 0
SMALL
GASTEIGER

@<TRIPOS>ATOM
      1 C         137.9681  142.5867  155.9660 C.3     1  UNL1        0.0948
      2 C         137.9211  141.4563  156.9510 C.2     1  UNL1        0.2267
      3 O         137.3809  140.1205  156.5345 O.2     1  UNL1       -0.2748
      4 N         138.4144  141.6620  158.3525 N.am    1  UNL1       -0.2683
      5 C         138.3230  140.4684  159.2564 C.3     1  UNL1        0.1220
      6 C         138.7284  140.3520  160.6959 C.ar    1  UNL1        0.0147
      7 C         138.4667  138.9747  161.2293 C.ar    1  UNL1        0.0102
      8 C         138.8020  138.6460  162.6539 C.ar    1  UNL1        0.0575
      9 CL        138.5403  137.2686  163.1874 Cl      1  UNL1       -0.0823
     10 C         139.3990  139.6945  163.5450 C.ar    1  UNL1        0.0129
     11 C         139.6608  141.0718  163.0116 C.ar    1  UNL1        0.0182
     12 C         139.3254  141.4005  161.5871 C.ar    1  UNL1        0.0639
     13 N         139.6645  142.8244  161.2588 N.ar    1  UNL1       -0.2796
     14 C         139.4902  143.5514  159.9584 C.ar    1  UNL1        0.1671
     15 N         139.9809  144.9566  160.1436 N.ar    1  UNL1       -0.1315
     16 N         140.4585  145.0982  161.5584 N.ar    1  UNL1       -0.1333
     17 C         140.2629  143.7804  162.2477 C.ar    1  UNL1        0.1465
     18 C         138.9339  143.0340  158.6650 C.3     1  UNL1        0.1602
     19 C         140.6056  143.4726  163.6752 C.3     1  UNL1        0.0625
     20 C         139.5687  143.6339  164.7471 C.3     1  UNL1        0.0291
     21 C         139.9114  143.3262  166.1745 C.3     1  UNL1        0.0926
     22 N         141.2910  142.8570  166.5303 N.pl3   1  UNL1       -0.2932
     23 C         142.3279  142.6957  165.4585 C.3     1  UNL1        0.0926
     24 C         141.9853  143.0034  164.0310 C.3     1  UNL1        0.0291
     25 C         141.6337  142.5492  167.9578 C.ar    1  UNL1        0.1317
     26 C         143.0454  142.2088  168.3336 C.ar    1  UNL1        0.0343
     27 C         143.3881  141.9010  169.7611 C.ar    1  UNL1        0.0045
     28 C         142.3191  141.9336  170.8128 C.ar    1  UNL1        0.0208
     29 C         140.9074  142.2740  170.4371 C.ar    1  UNL1        0.1003
     30 N         140.5647  142.5819  169.0096 N.ar    1  UNL1       -0.2292
@<TRIPOS>BOND
     1     1     2    1
     2     2     3    2
     3     2     4   am
     4     4     5    1
     5     5     6    1
     6     6     7   ar
     7     7     8   ar
     8     8     9    1
     9     8    10   ar
    10    10    11   ar
    11    11    12   ar
    12    12    13    1
    13    13    14   ar
    14    14    15   ar
    15    15    16   ar
    16    16    17   ar
    17    17    19    1
    18    19    20    1
    19    20    21    1
    20    21    22    1
    21    22    25    1
    22    25    26   ar
    23    26    27   ar
    24    27    28   ar
    25    28    29   ar
    26    29    30   ar
    27    22    23    1
    28    23    24    1
    29    14    18    1
    30    18     4    1
    31    12     6   ar
    32    17    13   ar
    33    24    19    1
    34    30    25   ar
@<TRIPOS>MOLECULE
*****
 30 34 0 0 0
SMALL
GASTEIGER

@<TRIPOS>ATOM
      1 C         139.9486  140.9643  170.4227 C.3     1  UNL1        0.0948
      2 C         139.3562  140.3184  169.2054 C.2     1  UNL1        0.2267
      3 O         138.1000  139.5073  169.3229 O.2     1  UNL1       -0.2748
      4 N         140.0201  140.4836  167.8705 N.am    1  UNL1       -0.2683
      5 C         139.3467  139.7974  166.7192 C.3     1  UNL1        0.1220
      6 C         139.7564  139.7713  165.2765 C.ar    1  UNL1        0.0147
      7 C         138.8000  138.9641  164.4497 C.ar    1  UNL1        0.0102
      8 C         139.0281  138.8106  162.9751 C.ar    1  UNL1        0.0575
      9 CL        138.0717  138.0034  162.1482 Cl      1  UNL1       -0.0823
     10 C         140.2127  139.4643  162.3274 C.ar    1  UNL1        0.0129
     11 C         141.1691  140.2715  163.1542 C.ar    1  UNL1        0.0182
     12 C         140.9410  140.4250  164.6287 C.ar    1  UNL1        0.0639
     13 N         142.0082  141.2662  165.2638 N.ar    1  UNL1       -0.2796
     14 C         142.1547  141.6616  166.7033 C.ar    1  UNL1        0.1671
     15 N         143.3871  142.5072  166.8288 N.ar    1  UNL1       -0.1315
     16 N         144.0025  142.6345  165.4667 N.ar    1  UNL1       -0.1333
     17 C         143.1503  141.8676  164.4995 C.ar    1  UNL1        0.1465
     18 C         141.2698  141.3133  167.8634 C.3     1  UNL1        0.1602
     19 C         143.3969  141.7267  163.0267 C.3     1  UNL1        0.0625
     20 C         144.0796  140.5017  162.4942 C.3     1  UNL1        0.0291
     21 C         144.3261  140.3609  161.0215 C.3     1  UNL1        0.0926
     22 N         143.8901  141.4449  160.0809 N.pl3   1  UNL1       -0.2932
     23 C         143.2074  142.6699  160.6133 C.3     1  UNL1        0.0926
     24 C         142.9608  142.8108  162.0861 C.3     1  UNL1        0.0291
     25 C         144.1366  141.3040  158.6080 C.ar    1  UNL1        0.1317
     26 C         144.5024  142.5073  157.7904 C.ar    1  UNL1        0.0343
     27 C         144.7490  142.3664  156.3175 C.ar    1  UNL1        0.0045
     28 C         144.6298  141.0224  155.6623 C.ar    1  UNL1        0.0208
     29 C         144.2640  139.8191  156.4799 C.ar    1  UNL1        0.1003
     30 N         144.0174  139.9600  157.9528 N.ar    1  UNL1       -0.2292
@<TRIPOS>BOND
     1     1     2    1
     2     2     3    2
     3     2     4   am
     4     4     5    1
     5     5     6    1
     6     6     7   ar
     7     7     8   ar
     8     8     9    1
     9     8    10   ar
    10    10    11   ar
    11    11    12   ar
    12    12    13    1
    13    13    14   ar
    14    14    15   ar
    15    15    16   ar
    16    16    17   ar
    17    17    19    1
    18    19    20    1
    19    20    21    1
    20    21    22    1
    21    22    25    1
    22    25    26   ar
    23    26    27   ar
    24    27    28   ar
    25    28    29   ar
    26    29    30   ar
    27    22    23    1
    28    23    24    1
    29    14    18    1
    30    18     4    1
    31    12     6   ar
    32    17    13   ar
    33    24    19    1
    34    30    25   ar
@<TRIPOS>MOLECULE
*****
 30 34 0 0 0
SMALL
GASTEIGER

@<TRIPOS>ATOM
      1 C         137.3912  140.7646  156.5368 C.3     1  UNL1        0.0948
      2 C         137.9953  141.8493  157.3787 C.2     1  UNL1        0.2267
      3 O         138.2346  143.2088  156.7918 O.2     1  UNL1       -0.2748
      4 N         138.3601  141.5744  158.8074 N.am    1  UNL1       -0.2683
      5 C         138.9571  142.7264  159.5600 C.3     1  UNL1        0.1220
      6 C         139.4212  142.7725  160.9857 C.ar    1  UNL1        0.0147
      7 C         139.9570  144.1268  161.3441 C.ar    1  UNL1        0.0102
      8 C         140.4745  144.3864  162.7279 C.ar    1  UNL1        0.0575
      9 CL        141.0103  145.7409  163.0864 Cl      1  UNL1       -0.0823
     10 C         140.4561  143.2917  163.7531 C.ar    1  UNL1        0.0129
     11 C         139.9203  141.9373  163.3947 C.ar    1  UNL1        0.0182
     12 C         139.4028  141.6777  162.0110 C.ar    1  UNL1        0.0639
     13 N         138.9159  140.2666  161.8637 N.ar    1  UNL1       -0.2796
     14 C         138.3271  139.6016  160.6549 C.ar    1  UNL1        0.1671
     15 N         137.9994  138.1840  161.0192 N.ar    1  UNL1       -0.1315
     16 N         138.3857  137.9727  162.4531 N.ar    1  UNL1       -0.1333
     17 C         138.9521  139.2598  162.9751 C.ar    1  UNL1        0.1465
     18 C         138.0798  140.1837  159.2947 C.3     1  UNL1        0.1602
     19 C         139.4647  139.4982  164.3644 C.3     1  UNL1        0.0625
     20 C         138.5145  139.8864  165.4582 C.3     1  UNL1        0.0291
     21 C         139.0271  140.1249  166.8475 C.3     1  UNL1        0.0926
     22 N         140.4900  139.9752  167.1431 N.pl3   1  UNL1       -0.2932
     23 C         141.4403  139.5870  166.0494 C.3     1  UNL1        0.0926
     24 C         140.9277  139.3485  164.6600 C.3     1  UNL1        0.0291
     25 C         141.0027  140.2136  168.5325 C.ar    1  UNL1        0.1317
     26 C         140.0485  140.5731  169.6326 C.ar    1  UNL1        0.0343
     27 C         140.5612  140.8115  171.0220 C.ar    1  UNL1        0.0045
     28 C         142.0280  140.6905  171.3112 C.ar    1  UNL1        0.0208
     29 C         142.9822  140.3311  170.2111 C.ar    1  UNL1        0.1003
     30 N         142.4695  140.0926  168.8217 N.ar    1  UNL1       -0.2292
@<TRIPOS>BOND
     1     1     2    1
     2     2     3    2
     3     2     4   am
     4     4     5    1
     5     5     6    1
     6     6     7   ar
     7     7     8   ar
     8     8     9    1
     9     8    10   ar
    10    10    11   ar
    11    11    12   ar
    12    12    13    1
    13    13    14   ar
    14    14    15   ar
    15    15    16   ar
    16    16    17   ar
    17    17    19    1
    18    19    20    1
    19    20    21    1
    20    21    22    1
    21    22    25    1
    22    25    26   ar
    23    26    27   ar
    24    27    28   ar
    25    28    29   ar
    26    29    30   ar
    27    22    23    1
    28    23    24    1
    29    14    18    1
    30    18     4    1
    31    12     6   ar
    32    17    13   ar
    33    24    19    1
    34    30    25   ar
@<TRIPOS>MOLECULE
*****
 30 34 0 0 0
SMALL
GASTEIGER

@<TRIPOS>ATOM
      1 C         141.9732  138.3431  155.9778 C.3     1  UNL1        0.0948
      2 C         142.9180  138.9693  156.9604 C.2     1  UNL1        0.2267
      3 O         144.2958  139.3712  156.5245 O.2     1  UNL1       -0.2748
      4 N         142.4848  139.1936  158.3788 N.am    1  UNL1       -0.2683
      5 C         143.5049  139.8257  159.2787 C.3     1  UNL1        0.1220
      6 C         143.3810  140.1764  160.7319 C.ar    1  UNL1        0.0147
      7 C         144.6424  140.7968  161.2554 C.ar    1  UNL1        0.0102
      8 C         144.7290  141.2224  162.6911 C.ar    1  UNL1        0.0575
      9 CL        145.9904  141.8428  163.2147 Cl      1  UNL1       -0.0823
     10 C         143.5543  141.0277  163.6033 C.ar    1  UNL1        0.0129
     11 C         142.2929  140.4073  163.0797 C.ar    1  UNL1        0.0182
     12 C         142.2063  139.9817  161.6440 C.ar    1  UNL1        0.0639
     13 N         140.8654  139.3882  161.3283 N.ar    1  UNL1       -0.2796
     14 C         140.3679  138.8427  160.0226 C.ar    1  UNL1        0.1671
     15 N         138.9604  138.3659  160.2254 N.ar    1  UNL1       -0.1315
     16 N         138.5878  138.6165  161.6566 N.ar    1  UNL1       -0.1333
     17 C         139.7651  139.2484  162.3383 C.ar    1  UNL1        0.1465
     18 C         141.0887  138.7561  158.7099 C.3     1  UNL1        0.1602
     19 C         139.8307  139.6669  163.7771 C.3     1  UNL1        0.0625
     20 C         139.3061  141.0094  164.1925 C.3     1  UNL1        0.0291
     21 C         139.3717  141.4279  165.6314 C.3     1  UNL1        0.0926
     22 N         139.9619  140.5040  166.6550 N.pl3   1  UNL1       -0.2932
     23 C         140.4865  139.1615  166.2398 C.3     1  UNL1        0.0926
     24 C         140.4210  138.7429  164.8009 C.3     1  UNL1        0.0291
     25 C         140.0275  140.9225  168.0940 C.ar    1  UNL1        0.1317
     26 C         140.3787  142.3371  168.4483 C.ar    1  UNL1        0.0343
     27 C         140.4443  142.7557  169.8873 C.ar    1  UNL1        0.0045
     28 C         140.1587  141.7596  170.9718 C.ar    1  UNL1        0.0208
     29 C         139.8075  140.3450  170.6175 C.ar    1  UNL1        0.1003
     30 N         139.7419  139.9265  169.1785 N.ar    1  UNL1       -0.2292
@<TRIPOS>BOND
     1     1     2    1
     2     2     3    2
     3     2     4   am
     4     4     5    1
     5     5     6    1
     6     6     7   ar
     7     7     8   ar
     8     8     9    1
     9     8    10   ar
    10    10    11   ar
    11    11    12   ar
    12    12    13    1
    13    13    14   ar
    14    14    15   ar
    15    15    16   ar
    16    16    17   ar
    17    17    19    1
    18    19    20    1
    19    20    21    1
    20    21    22    1
    21    22    25    1
    22    25    26   ar
    23    26    27   ar
    24    27    28   ar
    25    28    29   ar
    26    29    30   ar
    27    22    23    1
    28    23    24    1
    29    14    18    1
    30    18     4    1
    31    12     6   ar
    32    17    13   ar
    33    24    19    1
    34    30    25   ar
@<TRIPOS>MOLECULE
*****
 30 34 0 0 0
SMALL
GASTEIGER

@<TRIPOS>ATOM
      1 C         141.9719  140.0824  169.3977 C.3     1  UNL1        0.0948
      2 C         142.5383  139.5911  168.0985 C.2     1  UNL1        0.2267
      3 O         143.4480  138.3986  168.0801 O.2     1  UNL1       -0.2748
      4 N         142.1950  140.2924  166.8178 N.am    1  UNL1       -0.2683
      5 C         142.8139  139.7208  165.5767 C.3     1  UNL1        0.1220
      6 C         142.6688  140.1882  164.1587 C.ar    1  UNL1        0.0147
      7 C         143.4604  139.3314  163.2157 C.ar    1  UNL1        0.0102
      8 C         143.4521  139.6291  161.7455 C.ar    1  UNL1        0.0575
      9 CL        144.2437  138.7723  160.8024 Cl      1  UNL1       -0.0823
     10 C         142.6524  140.7834  161.2185 C.ar    1  UNL1        0.0129
     11 C         141.8608  141.6402  162.1615 C.ar    1  UNL1        0.0182
     12 C         141.8691  141.3425  163.6317 C.ar    1  UNL1        0.0639
     13 N         141.0168  142.3147  164.3924 N.ar    1  UNL1       -0.2796
     14 C         140.7538  142.3726  165.8680 C.ar    1  UNL1        0.1671
     15 N         139.8354  143.5290  166.1302 N.ar    1  UNL1       -0.1315
     16 N         139.5307  144.1860  164.8166 N.ar    1  UNL1       -0.1333
     17 C         140.2608  143.4355  163.7426 C.ar    1  UNL1        0.1465
     18 C         141.2782  141.4725  166.9474 C.3     1  UNL1        0.1602
     19 C         140.2389  143.7504  162.2762 C.3     1  UNL1        0.0625
     20 C         139.2661  143.0514  161.3734 C.3     1  UNL1        0.0291
     21 C         139.2441  143.3664  159.9071 C.3     1  UNL1        0.0926
     22 N         140.1949  144.3803  159.3434 N.pl3   1  UNL1       -0.2932
     23 C         141.1677  145.0794  160.2462 C.3     1  UNL1        0.0926
     24 C         141.1897  144.7645  161.7126 C.3     1  UNL1        0.0291
     25 C         140.1730  144.6953  157.8770 C.ar    1  UNL1        0.1317
     26 C         140.8241  145.9476  157.3691 C.ar    1  UNL1        0.0343
     27 C         140.8021  146.2626  155.9026 C.ar    1  UNL1        0.0045
     28 C         140.1292  145.3253  154.9442 C.ar    1  UNL1        0.0208
     29 C         139.4781  144.0731  155.4521 C.ar    1  UNL1        0.1003
     30 N         139.5001  143.7581  156.9186 N.ar    1  UNL1       -0.2292
@<TRIPOS>BOND
     1     1     2    1
     2     2     3    2
     3     2     4   am
     4     4     5    1
     5     5     6    1
     6     6     7   ar
     7     7     8   ar
     8     8     9    1
     9     8    10   ar
    10    10    11   ar
    11    11    12   ar
    12    12    13    1
    13    13    14   ar
    14    14    15   ar
    15    15    16   ar
    16    16    17   ar
    17    17    19    1
    18    19    20    1
    19    20    21    1
    20    21    22    1
    21    22    25    1
    22    25    26   ar
    23    26    27   ar
    24    27    28   ar
    25    28    29   ar
    26    29    30   ar
    27    22    23    1
    28    23    24    1
    29    14    18    1
    30    18     4    1
    31    12     6   ar
    32    17    13   ar
    33    24    19    1
    34    30    25   ar
@<TRIPOS>MOLECULE
*****
 30 34 0 0 0
SMALL
GASTEIGER

@<TRIPOS>ATOM
      1 C         142.6050  139.5851  168.9371 C.3     1  UNL1        0.0948
      2 C         142.4003  140.8313  168.1276 C.2     1  UNL1        0.2267
      3 O         142.7712  142.1670  168.7004 O.2     1  UNL1       -0.2748
      4 N         141.8246  140.7416  166.7454 N.am    1  UNL1       -0.2683
      5 C         141.6612  142.0457  166.0225 C.3     1  UNL1        0.1220
      6 C         141.1213  142.2901  164.6445 C.ar    1  UNL1        0.0147
      7 C         141.1304  143.7507  164.3035 C.ar    1  UNL1        0.0102
      8 C         140.6295  144.2119  162.9669 C.ar    1  UNL1        0.0575
      9 CL        140.6386  145.6726  162.6257 Cl      1  UNL1       -0.0823
     10 C         140.1197  143.2123  161.9714 C.ar    1  UNL1        0.0129
     11 C         140.1106  141.7517  162.3125 C.ar    1  UNL1        0.0182
     12 C         140.6114  141.2906  163.6491 C.ar    1  UNL1        0.0639
     13 N         140.5156  139.7999  163.7858 N.ar    1  UNL1       -0.2796
     14 C         140.9058  138.9405  164.9516 C.ar    1  UNL1        0.1671
     15 N         140.6138  137.5134  164.5938 N.ar    1  UNL1       -0.1315
     16 N         140.0430  137.4907  163.2069 N.ar    1  UNL1       -0.1333
     17 C         139.9823  138.9038  162.7074 C.ar    1  UNL1        0.1465
     18 C         141.4884  139.3596  166.2688 C.3     1  UNL1        0.1602
     19 C         139.4770  139.3437  161.3654 C.3     1  UNL1        0.0625
     20 C         140.4192  139.4329  160.2015 C.3     1  UNL1        0.0291
     21 C         139.9140  139.8727  158.8595 C.3     1  UNL1        0.0926
     22 N         138.4665  140.2234  158.6811 N.pl3   1  UNL1       -0.2932
     23 C         137.5243  140.1342  159.8448 C.3     1  UNL1        0.0926
     24 C         138.0295  139.6944  161.1870 C.3     1  UNL1        0.0291
     25 C         137.9612  140.6633  157.3390 C.ar    1  UNL1        0.1317
     26 C         137.4165  142.0494  157.1602 C.ar    1  UNL1        0.0343
     27 C         136.9112  142.4892  155.8180 C.ar    1  UNL1        0.0045
     28 C         136.9506  141.5430  154.6549 C.ar    1  UNL1        0.0208
     29 C         137.4953  140.1569  154.8337 C.ar    1  UNL1        0.1003
     30 N         138.0006  139.7170  156.1758 N.ar    1  UNL1       -0.2292
@<TRIPOS>BOND
     1     1     2    1
     2     2     3    2
     3     2     4   am
     4     4     5    1
     5     5     6    1
     6     6     7   ar
     7     7     8   ar
     8     8     9    1
     9     8    10   ar
    10    10    11   ar
    11    11    12   ar
    12    12    13    1
    13    13    14   ar
    14    14    15   ar
    15    15    16   ar
    16    16    17   ar
    17    17    19    1
    18    19    20    1
    19    20    21    1
    20    21    22    1
    21    22    25    1
    22    25    26   ar
    23    26    27   ar
    24    27    28   ar
    25    28    29   ar
    26    29    30   ar
    27    22    23    1
    28    23    24    1
    29    14    18    1
    30    18     4    1
    31    12     6   ar
    32    17    13   ar
    33    24    19    1
    34    30    25   ar
