@<TRIPOS>MOLECULE
*****
 27 30 0 0 0
SMALL
GASTEIGER

@<TRIPOS>ATOM
      1 N         137.5240  141.4731  163.5388 N.pl3   1  UNL1       -0.2150
      2 H         136.5818  141.1988  163.4589 H       1  UNL1        0.1737
      3 C         138.3077  141.1152  164.7667 C.ar    1  UNL1        0.0648
      4 C         139.3052  142.0843  165.3286 C.ar    1  UNL1        0.0155
      5 C         140.0890  141.7264  166.5565 C.ar    1  UNL1       -0.0029
      6 C         139.8753  140.3995  167.2224 C.ar    1  UNL1       -0.0214
      7 C         138.8778  139.4303  166.6604 C.ar    1  UNL1       -0.0029
      8 C         138.0940  139.7882  165.4326 C.ar    1  UNL1        0.0155
      9 C         140.6591  140.0415  168.4503 C.3     1  UNL1        0.0347
     10 C         141.9319  139.7055  167.7312 C.3     1  UNL1        0.0726
     11 N         142.9476  139.2930  168.7552 N.3     1  UNL1       -0.2972
     12 C         142.3024  139.3741  170.1069 C.3     1  UNL1        0.0689
     13 C         140.8880  139.8367  169.9184 C.3     1  UNL1        0.0211
     14 C         139.5500  140.3027  169.4258 C.3     1  UNL1        0.0072
     15 H         143.7515  139.9196  168.7173 H       1  UNL1        0.1233
     16 S         138.1756  142.2488  162.4327 S.O2    1  UNL1        0.0736
     17 O         138.8856  141.0073  161.9803 O.2     1  UNL1       -0.1499
     18 O         137.4656  143.4903  162.8850 O.2     1  UNL1       -0.1499
     19 C         140.1306  144.5760  159.1142 C.ar    1  UNL1       -0.0224
     20 C         139.3545  143.3312  158.8011 C.ar    1  UNL1       -0.0029
     21 C         138.7029  142.5555  159.9072 C.ar    1  UNL1        0.0199
     22 C         138.8273  143.0245  161.3265 C.ar    1  UNL1        0.1251
     23 C         139.6034  144.2693  161.6397 C.ar    1  UNL1        0.0199
     24 C         140.2551  145.0451  160.5335 C.ar    1  UNL1       -0.0029
     25 C         142.2292  145.1247  157.6842 C.3     1  UNL1        0.0047
     26 C         140.7823  145.3517  158.0081 C.3     1  UNL1        0.0224
     27 C         139.9871  146.3545  157.2258 C.3     1  UNL1        0.0047
@<TRIPOS>BOND
     1    25    26    1
     2    26    27    1
     3    26    19    1
     4    19    20   ar
     5    20    21   ar
     6    21    22   ar
     7    22    16    1
     8    16    17    2
     9    16    18    2
    10    16     1    1
    11     1     3    1
    12     3     4   ar
    13     4     5   ar
    14     5     6   ar
    15     9     6    1
    16     9    10    1
    17    10    11    1
    18    11    12    1
    19    13    12    1
    20    13    14    1
    21     6     7   ar
    22     7     8   ar
    23    22    23   ar
    24    23    24   ar
    25    24    19   ar
    26     8     3   ar
    27    13     9    1
    28    14     9    1
    29     1     2    1
    30    11    15    1
@<TRIPOS>MOLECULE
*****
 27 30 0 0 0
SMALL
GASTEIGER

@<TRIPOS>ATOM
      1 N         137.5326  141.4511  163.5319 N.pl3   1  UNL1       -0.2150
      2 H         136.5923  141.1708  163.4511 H       1  UNL1        0.1737
      3 C         138.3166  141.1008  164.7618 C.ar    1  UNL1        0.0648
      4 C         138.1076  139.7754  165.4322 C.ar    1  UNL1        0.0155
      5 C         138.8916  139.4251  166.6622 C.ar    1  UNL1       -0.0029
      6 C         139.8845  140.4003  167.2216 C.ar    1  UNL1       -0.0214
      7 C         140.0935  141.7258  166.5512 C.ar    1  UNL1       -0.0029
      8 C         139.3096  142.0760  165.3213 C.ar    1  UNL1        0.0155
      9 C         140.6685  140.0500  168.4516 C.3     1  UNL1        0.0347
     10 C         141.9406  139.7076  167.7342 C.3     1  UNL1        0.0726
     11 N         142.9563  139.3010  168.7605 N.3     1  UNL1       -0.2972
     12 C         142.3120  139.3922  170.1120 C.3     1  UNL1        0.0689
     13 C         140.8980  139.8552  169.9210 C.3     1  UNL1        0.0211
     14 C         139.5604  140.3193  169.4258 C.3     1  UNL1        0.0072
     15 H         143.7610  139.9264  168.7178 H       1  UNL1        0.1233
     16 S         138.1813  142.2285  162.4251 S.O2    1  UNL1        0.0736
     17 O         138.9163  140.9955  161.9899 O.2     1  UNL1       -0.1499
     18 O         137.4462  143.4615  162.8603 O.2     1  UNL1       -0.1499
     19 C         140.1273  144.5605  159.1047 C.ar    1  UNL1       -0.0224
     20 C         140.2927  145.0024  160.5285 C.ar    1  UNL1       -0.0029
     21 C         139.6440  144.2251  161.6353 C.ar    1  UNL1        0.0199
     22 C         138.8299  143.0058  161.3183 C.ar    1  UNL1        0.1251
     23 C         138.6645  142.5638  159.8945 C.ar    1  UNL1        0.0199
     24 C         139.3132  143.3412  158.7877 C.ar    1  UNL1       -0.0029
     25 C         142.2189  145.1030  157.6623 C.3     1  UNL1        0.0047
     26 C         140.7759  145.3378  157.9979 C.3     1  UNL1        0.0224
     27 C         139.9816  146.3500  157.2268 C.3     1  UNL1        0.0047
@<TRIPOS>BOND
     1    25    26    1
     2    26    27    1
     3    26    19    1
     4    19    20   ar
     5    20    21   ar
     6    21    22   ar
     7    22    16    1
     8    16    17    2
     9    16    18    2
    10    16     1    1
    11     1     3    1
    12     3     4   ar
    13     4     5   ar
    14     5     6   ar
    15     9     6    1
    16     9    10    1
    17    10    11    1
    18    11    12    1
    19    13    12    1
    20    13    14    1
    21     6     7   ar
    22     7     8   ar
    23    22    23   ar
    24    23    24   ar
    25    24    19   ar
    26     8     3   ar
    27    13     9    1
    28    14     9    1
    29     1     2    1
    30    11    15    1
@<TRIPOS>MOLECULE
*****
 27 30 0 0 0
SMALL
GASTEIGER

@<TRIPOS>ATOM
      1 N         138.9550  137.6462  164.2171 N.pl3   1  UNL1       -0.2150
      2 H         138.2615  136.9514  164.2905 H       1  UNL1        0.1737
      3 C         139.2957  138.4944  165.4065 C.ar    1  UNL1        0.0648
      4 C         138.2822  138.7057  166.4919 C.ar    1  UNL1        0.0155
      5 C         138.6229  139.5539  167.6813 C.ar    1  UNL1       -0.0029
      6 C         139.9770  140.1908  167.7852 C.ar    1  UNL1       -0.0214
      7 C         140.9905  139.9794  166.6997 C.ar    1  UNL1       -0.0029
      8 C         140.6498  139.1313  165.5104 C.ar    1  UNL1        0.0155
      9 C         140.3177  141.0390  168.9746 C.3     1  UNL1        0.0347
     10 C         140.1822  139.9446  169.9914 C.3     1  UNL1        0.0726
     11 N         140.4797  140.5269  171.3414 N.3     1  UNL1       -0.2972
     12 C         140.7990  141.9811  171.1588 C.3     1  UNL1        0.0689
     13 C         140.6988  142.2975  169.6960 C.3     1  UNL1        0.0211
     14 C         140.5243  142.3105  168.2063 C.3     1  UNL1        0.0072
     15 H         141.2779  140.0469  171.7573 H       1  UNL1        0.1233
     16 S         139.6711  137.8568  162.9160 S.O2    1  UNL1        0.0736
     17 O         138.6863  138.9265  162.5472 O.2     1  UNL1       -0.1499
     18 O         140.6558  136.7871  163.2848 O.2     1  UNL1       -0.1499
     19 C         141.8191  138.4886  159.0125 C.ar    1  UNL1       -0.0224
     20 C         142.5831  138.0501  160.2266 C.ar    1  UNL1       -0.0029
     21 C         141.8671  137.8396  161.5278 C.ar    1  UNL1        0.0199
     22 C         140.3871  138.0674  161.6148 C.ar    1  UNL1        0.1251
     23 C         139.6231  138.5058  160.4007 C.ar    1  UNL1        0.0199
     24 C         140.3391  138.7164  159.0996 C.ar    1  UNL1       -0.0029
     25 C         142.9049  137.5211  156.8596 C.3     1  UNL1        0.0047
     26 C         142.5351  138.6991  157.7114 C.3     1  UNL1        0.0224
     27 C         142.8813  140.0877  157.2620 C.3     1  UNL1        0.0047
@<TRIPOS>BOND
     1    25    26    1
     2    26    27    1
     3    26    19    1
     4    19    20   ar
     5    20    21   ar
     6    21    22   ar
     7    22    16    1
     8    16    17    2
     9    16    18    2
    10    16     1    1
    11     1     3    1
    12     3     4   ar
    13     4     5   ar
    14     5     6   ar
    15     9     6    1
    16     9    10    1
    17    10    11    1
    18    11    12    1
    19    13    12    1
    20    13    14    1
    21     6     7   ar
    22     7     8   ar
    23    22    23   ar
    24    23    24   ar
    25    24    19   ar
    26     8     3   ar
    27    13     9    1
    28    14     9    1
    29     1     2    1
    30    11    15    1
@<TRIPOS>MOLECULE
*****
 27 30 0 0 0
SMALL
GASTEIGER

@<TRIPOS>ATOM
      1 N         138.6904  138.2861  164.5447 N.pl3   1  UNL1       -0.2150
      2 H         138.3462  137.4087  164.8291 H       1  UNL1        0.1737
      3 C         138.7325  138.6386  163.0873 C.ar    1  UNL1        0.0648
      4 C         139.5485  137.8112  162.1388 C.ar    1  UNL1        0.0155
      5 C         139.5906  138.1638  160.6814 C.ar    1  UNL1       -0.0029
      6 C         138.8167  139.3437  160.1725 C.ar    1  UNL1       -0.0214
      7 C         138.0007  140.1710  161.1210 C.ar    1  UNL1       -0.0029
      8 C         137.9586  139.8185  162.5784 C.ar    1  UNL1        0.0155
      9 C         138.8587  139.6962  158.7151 C.3     1  UNL1        0.0347
     10 C         137.9251  140.8665  158.8100 C.3     1  UNL1        0.0726
     11 N         137.7702  141.4483  157.4361 N.3     1  UNL1       -0.2972
     12 C         138.6080  140.6376  156.4922 C.3     1  UNL1        0.0689
     13 C         139.2807  139.5548  157.2827 C.3     1  UNL1        0.0211
     14 C         139.8011  138.5997  158.3157 C.3     1  UNL1        0.0072
     15 H         138.0858  142.4182  157.4333 H       1  UNL1        0.1233
     16 S         139.1728  139.2703  165.5686 S.O2    1  UNL1        0.0736
     17 O         140.5454  139.2252  164.9653 O.2     1  UNL1       -0.1499
     18 O         137.8003  139.3155  166.1719 O.2     1  UNL1       -0.1499
     19 C         140.6201  142.2231  168.6405 C.ar    1  UNL1       -0.0224
     20 C         139.9520  140.9532  169.0773 C.ar    1  UNL1       -0.0029
     21 C         139.4696  139.9689  168.0533 C.ar    1  UNL1        0.0199
     22 C         139.6553  140.2546  166.5926 C.ar    1  UNL1        0.1251
     23 C         140.3234  141.5245  166.1558 C.ar    1  UNL1        0.0199
     24 C         140.8058  142.5088  167.1797 C.ar    1  UNL1       -0.0029
     25 C         140.2288  144.3574  170.0693 C.3     1  UNL1        0.0047
     26 C         141.1025  143.2074  169.6645 C.3     1  UNL1        0.0224
     27 C         142.4587  143.0416  170.2836 C.3     1  UNL1        0.0047
@<TRIPOS>BOND
     1    25    26    1
     2    26    27    1
     3    26    19    1
     4    19    20   ar
     5    20    21   ar
     6    21    22   ar
     7    22    16    1
     8    16    17    2
     9    16    18    2
    10    16     1    1
    11     1     3    1
    12     3     4   ar
    13     4     5   ar
    14     5     6   ar
    15     9     6    1
    16     9    10    1
    17    10    11    1
    18    11    12    1
    19    13    12    1
    20    13    14    1
    21     6     7   ar
    22     7     8   ar
    23    22    23   ar
    24    23    24   ar
    25    24    19   ar
    26     8     3   ar
    27    13     9    1
    28    14     9    1
    29     1     2    1
    30    11    15    1
@<TRIPOS>MOLECULE
*****
 27 30 0 0 0
SMALL
GASTEIGER

@<TRIPOS>ATOM
      1 N         137.6636  140.3832  164.2834 N.pl3   1  UNL1       -0.2150
      2 H         136.8672  139.8668  164.5449 H       1  UNL1        0.1737
      3 C         138.6393  140.8372  165.3282 C.ar    1  UNL1        0.0648
      4 C         139.2386  142.2100  165.2487 C.ar    1  UNL1        0.0155
      5 C         140.2144  142.6641  166.2936 C.ar    1  UNL1       -0.0029
      6 C         140.5909  141.7454  167.4179 C.ar    1  UNL1       -0.0214
      7 C         139.9917  140.3726  167.4974 C.ar    1  UNL1       -0.0029
      8 C         139.0159  139.9185  166.4526 C.ar    1  UNL1        0.0155
      9 C         141.5668  142.1994  168.4628 C.3     1  UNL1        0.0347
     10 C         140.5835  143.0107  169.2534 C.3     1  UNL1        0.0726
     11 N         141.3112  143.6145  170.4179 N.3     1  UNL1       -0.2972
     12 C         142.7440  143.1764  170.3469 C.3     1  UNL1        0.0689
     13 C         142.9019  142.3018  169.1386 C.3     1  UNL1        0.0211
     14 C         142.7538  141.4830  167.8905 C.3     1  UNL1        0.0072
     15 H         140.8938  143.2931  171.2913 H       1  UNL1        0.1233
     16 S         137.9011  140.7159  162.8402 S.O2    1  UNL1        0.0736
     17 O         136.8437  141.7775  162.9109 O.2     1  UNL1       -0.1499
     18 O         138.9585  139.6543  162.7695 O.2     1  UNL1       -0.1499
     19 C         138.6137  141.7142  158.5106 C.ar    1  UNL1       -0.0224
     20 C         138.1181  140.3514  158.8943 C.ar    1  UNL1       -0.0029
     21 C         137.8806  140.0187  160.3376 C.ar    1  UNL1        0.0199
     22 C         138.1386  141.0487  161.3970 C.ar    1  UNL1        0.1251
     23 C         138.6341  142.4114  161.0132 C.ar    1  UNL1        0.0199
     24 C         138.8717  142.7442  159.5700 C.ar    1  UNL1       -0.0029
     25 C         138.3906  143.3634  156.5156 C.3     1  UNL1        0.0047
     26 C         138.8512  142.0469  157.0674 C.3     1  UNL1        0.0224
     27 C         139.5493  141.0631  156.1759 C.3     1  UNL1        0.0047
@<TRIPOS>BOND
     1    25    26    1
     2    26    27    1
     3    26    19    1
     4    19    20   ar
     5    20    21   ar
     6    21    22   ar
     7    22    16    1
     8    16    17    2
     9    16    18    2
    10    16     1    1
    11     1     3    1
    12     3     4   ar
    13     4     5   ar
    14     5     6   ar
    15     9     6    1
    16     9    10    1
    17    10    11    1
    18    11    12    1
    19    13    12    1
    20    13    14    1
    21     6     7   ar
    22     7     8   ar
    23    22    23   ar
    24    23    24   ar
    25    24    19   ar
    26     8     3   ar
    27    13     9    1
    28    14     9    1
    29     1     2    1
    30    11    15    1
@<TRIPOS>MOLECULE
*****
 27 30 0 0 0
SMALL
GASTEIGER

@<TRIPOS>ATOM
      1 N         138.9999  137.5623  164.2410 N.pl3   1  UNL1       -0.2150
      2 H         138.5660  136.6888  164.3752 H       1  UNL1        0.1737
      3 C         139.3286  138.4259  165.4226 C.ar    1  UNL1        0.0648
      4 C         138.2931  138.6787  166.4780 C.ar    1  UNL1        0.0155
      5 C         138.6218  139.5423  167.6596 C.ar    1  UNL1       -0.0029
      6 C         139.9860  140.1531  167.7858 C.ar    1  UNL1       -0.0214
      7 C         141.0215  139.9002  166.7304 C.ar    1  UNL1       -0.0029
      8 C         140.6928  139.0366  165.5488 C.ar    1  UNL1        0.0155
      9 C         140.3148  141.0167  168.9674 C.3     1  UNL1        0.0347
     10 C         140.1880  139.9312  169.9949 C.3     1  UNL1        0.0726
     11 N         140.4759  140.5302  171.3397 N.3     1  UNL1       -0.2972
     12 C         140.7806  141.9857  171.1433 C.3     1  UNL1        0.0689
     13 C         140.6810  142.2863  169.6771 C.3     1  UNL1        0.0211
     14 C         140.5103  142.2825  168.1869 C.3     1  UNL1        0.0072
     15 H         141.2779  140.0627  171.7624 H       1  UNL1        0.1233
     16 S         139.3322  138.0295  162.8549 S.O2    1  UNL1        0.0736
     17 O         140.4626  137.0454  162.7942 O.2     1  UNL1       -0.1499
     18 O         138.2018  139.0137  162.9157 O.2     1  UNL1       -0.1499
     19 C         140.3293  139.4313  158.6967 C.ar    1  UNL1       -0.0224
     20 C         138.9424  139.6151  159.2378 C.ar    1  UNL1       -0.0029
     21 C         138.6101  139.1478  160.6238 C.ar    1  UNL1        0.0199
     22 C         139.6646  138.4968  161.4689 C.ar    1  UNL1        0.1251
     23 C         141.0514  138.3130  160.9278 C.ar    1  UNL1        0.0199
     24 C         141.3838  138.7803  159.5417 C.ar    1  UNL1       -0.0029
     25 C         140.3810  141.3165  156.9097 C.3     1  UNL1        0.0047
     26 C         140.6616  139.8986  157.3106 C.3     1  UNL1        0.0224
     27 C         141.2746  138.9479  156.3255 C.3     1  UNL1        0.0047
@<TRIPOS>BOND
     1    25    26    1
     2    26    27    1
     3    26    19    1
     4    19    20   ar
     5    20    21   ar
     6    21    22   ar
     7    22    16    1
     8    16    17    2
     9    16    18    2
    10    16     1    1
    11     1     3    1
    12     3     4   ar
    13     4     5   ar
    14     5     6   ar
    15     9     6    1
    16     9    10    1
    17    10    11    1
    18    11    12    1
    19    13    12    1
    20    13    14    1
    21     6     7   ar
    22     7     8   ar
    23    22    23   ar
    24    23    24   ar
    25    24    19   ar
    26     8     3   ar
    27    13     9    1
    28    14     9    1
    29     1     2    1
    30    11    15    1
@<TRIPOS>MOLECULE
*****
 27 30 0 0 0
SMALL
GASTEIGER

@<TRIPOS>ATOM
      1 N         137.2277  141.0792  163.8881 N.pl3   1  UNL1       -0.2150
      2 H         136.2793  141.1996  164.1234 H       1  UNL1        0.1737
      3 C         138.2365  140.7960  164.9614 C.ar    1  UNL1        0.0648
      4 C         138.0904  139.5788  165.8258 C.ar    1  UNL1        0.0155
      5 C         139.0993  139.2956  166.8991 C.ar    1  UNL1       -0.0029
      6 C         140.2543  140.2296  167.1081 C.ar    1  UNL1       -0.0214
      7 C         140.4003  141.4469  166.2438 C.ar    1  UNL1       -0.0029
      8 C         139.3915  141.7300  165.1705 C.ar    1  UNL1        0.0155
      9 C         141.2632  139.9465  168.1814 C.3     1  UNL1        0.0347
     10 C         140.3065  140.0646  169.3308 C.3     1  UNL1        0.0726
     11 N         141.0714  139.8184  170.5975 N.3     1  UNL1       -0.2972
     12 C         142.5006  139.5483  170.2310 C.3     1  UNL1        0.0689
     13 C         142.6191  139.6274  168.7378 C.3     1  UNL1        0.0211
     14 C         142.4306  139.7693  167.2564 C.3     1  UNL1        0.0072
     15 H         140.6812  139.0128  171.0864 H       1  UNL1        0.1233
     16 S         137.6638  141.1789  162.4564 S.O2    1  UNL1        0.0736
     17 O         137.9265  139.7022  162.4336 O.2     1  UNL1       -0.1499
     18 O         137.4010  142.6555  162.4792 O.2     1  UNL1       -0.1499
     19 C         138.9720  141.4780  158.1612 C.ar    1  UNL1       -0.0224
     20 C         138.9727  142.6992  159.0322 C.ar    1  UNL1       -0.0029
     21 C         138.5366  142.5995  160.4639 C.ar    1  UNL1        0.0199
     22 C         138.0998  141.2786  161.0247 C.ar    1  UNL1        0.1251
     23 C         138.0991  140.0574  160.1536 C.ar    1  UNL1        0.0199
     24 C         138.5352  140.1571  158.7219 C.ar    1  UNL1       -0.0029
     25 C         139.7806  140.3385  155.9708 C.3     1  UNL1        0.0047
     26 C         139.4080  141.5777  156.7294 C.3     1  UNL1        0.0224
     27 C         139.4716  142.9167  156.0563 C.3     1  UNL1        0.0047
@<TRIPOS>BOND
     1    25    26    1
     2    26    27    1
     3    26    19    1
     4    19    20   ar
     5    20    21   ar
     6    21    22   ar
     7    22    16    1
     8    16    17    2
     9    16    18    2
    10    16     1    1
    11     1     3    1
    12     3     4   ar
    13     4     5   ar
    14     5     6   ar
    15     9     6    1
    16     9    10    1
    17    10    11    1
    18    11    12    1
    19    13    12    1
    20    13    14    1
    21     6     7   ar
    22     7     8   ar
    23    22    23   ar
    24    23    24   ar
    25    24    19   ar
    26     8     3   ar
    27    13     9    1
    28    14     9    1
    29     1     2    1
    30    11    15    1
@<TRIPOS>MOLECULE
*****
 27 30 0 0 0
SMALL
GASTEIGER

@<TRIPOS>ATOM
      1 N         138.9928  138.1673  165.0108 N.pl3   1  UNL1       -0.2150
      2 H         138.6371  137.2924  165.2886 H       1  UNL1        0.1737
      3 C         139.6062  139.0844  166.0269 C.ar    1  UNL1        0.0648
      4 C         140.9505  139.6978  165.7689 C.ar    1  UNL1        0.0155
      5 C         141.5639  140.6150  166.7851 C.ar    1  UNL1       -0.0029
      6 C         140.8330  140.9188  168.0592 C.ar    1  UNL1       -0.0214
      7 C         139.4887  140.3054  168.3172 C.ar    1  UNL1       -0.0029
      8 C         138.8753  139.3883  167.3011 C.ar    1  UNL1        0.0155
      9 C         141.4464  141.8360  169.0754 C.3     1  UNL1        0.0347
     10 C         142.8574  141.6886  168.5880 C.3     1  UNL1        0.0726
     11 N         143.7389  142.5349  169.4579 N.3     1  UNL1       -0.2972
     12 C         142.8728  143.2052  170.4828 C.3     1  UNL1        0.0689
     13 C         141.4560  142.7732  170.2464 C.3     1  UNL1        0.0211
     14 C         140.1637  142.1750  169.7751 C.3     1  UNL1        0.0072
     15 H         144.2120  143.2385  168.8909 H       1  UNL1        0.1233
     16 S         138.9213  138.5832  163.5713 S.O2    1  UNL1        0.0736
     17 O         138.0523  139.7456  163.9503 O.2     1  UNL1       -0.1499
     18 O         139.7904  137.4208  163.1923 O.2     1  UNL1       -0.1499
     19 C         138.7070  139.8309  159.2531 C.ar    1  UNL1       -0.0224
     20 C         139.5245  138.6373  159.6492 C.ar    1  UNL1       -0.0029
     21 C         139.5960  138.2214  161.0886 C.ar    1  UNL1        0.0199
     22 C         138.8499  138.9991  162.1319 C.ar    1  UNL1        0.1251
     23 C         138.0323  140.1927  161.7358 C.ar    1  UNL1        0.0199
     24 C         137.9609  140.6086  160.2964 C.ar    1  UNL1       -0.0029
     25 C         139.7692  139.9296  156.8842 C.3     1  UNL1        0.0047
     26 C         138.6355  140.2468  157.8137 C.3     1  UNL1        0.0224
     27 C         137.4304  140.9799  157.3038 C.3     1  UNL1        0.0047
@<TRIPOS>BOND
     1    25    26    1
     2    26    27    1
     3    26    19    1
     4    19    20   ar
     5    20    21   ar
     6    21    22   ar
     7    22    16    1
     8    16    17    2
     9    16    18    2
    10    16     1    1
    11     1     3    1
    12     3     4   ar
    13     4     5   ar
    14     5     6   ar
    15     9     6    1
    16     9    10    1
    17    10    11    1
    18    11    12    1
    19    13    12    1
    20    13    14    1
    21     6     7   ar
    22     7     8   ar
    23    22    23   ar
    24    23    24   ar
    25    24    19   ar
    26     8     3   ar
    27    13     9    1
    28    14     9    1
    29     1     2    1
    30    11    15    1
@<TRIPOS>MOLECULE
*****
 27 30 0 0 0
SMALL
GASTEIGER

@<TRIPOS>ATOM
      1 N         143.5822  143.3898  163.6102 N.pl3   1  UNL1       -0.2150
      2 H         144.5642  143.4388  163.6603 H       1  UNL1        0.1737
      3 C         142.7885  142.9909  164.8189 C.ar    1  UNL1        0.0648
      4 C         141.3181  143.2810  164.8798 C.ar    1  UNL1        0.0155
      5 C         140.5244  142.8820  166.0886 C.ar    1  UNL1       -0.0029
      6 C         141.2012  142.1931  167.2363 C.ar    1  UNL1       -0.0214
      7 C         142.6716  141.9030  167.1753 C.ar    1  UNL1       -0.0029
      8 C         143.4653  142.3019  165.9667 C.ar    1  UNL1        0.0155
      9 C         140.4075  141.7942  168.4451 C.3     1  UNL1        0.0347
     10 C         139.9821  140.4556  167.9184 C.3     1  UNL1        0.0726
     11 N         139.1341  139.7943  168.9643 N.3     1  UNL1       -0.2972
     12 C         139.0356  140.7241  170.1372 C.3     1  UNL1        0.0689
     13 C         139.8226  141.9601  169.8163 C.3     1  UNL1        0.0211
     14 C         140.6671  143.0493  169.2243 C.3     1  UNL1        0.0072
     15 H         139.5642  138.9160  169.2540 H       1  UNL1        0.1233
     16 S         142.8796  143.7140  162.3251 S.O2    1  UNL1        0.0736
     17 O         143.0756  145.1779  162.5873 O.2     1  UNL1       -0.1499
     18 O         142.6837  142.2502  162.0629 O.2     1  UNL1       -0.1499
     19 C         140.7721  144.6867  158.4700 C.ar    1  UNL1       -0.0224
     20 C         141.9267  143.7291  158.4727 C.ar    1  UNL1       -0.0029
     21 C         142.6292  143.4049  159.7577 C.ar    1  UNL1        0.0199
     22 C         142.1771  144.0382  161.0401 C.ar    1  UNL1        0.1251
     23 C         141.0226  144.9958  161.0374 C.ar    1  UNL1        0.0199
     24 C         140.3201  145.3200  159.7523 C.ar    1  UNL1       -0.0029
     25 C         139.9307  146.4383  156.7455 C.3     1  UNL1        0.0047
     26 C         140.0696  145.0109  157.1849 C.3     1  UNL1        0.0224
     27 C         139.5060  143.9077  156.3392 C.3     1  UNL1        0.0047
@<TRIPOS>BOND
     1    25    26    1
     2    26    27    1
     3    26    19    1
     4    19    20   ar
     5    20    21   ar
     6    21    22   ar
     7    22    16    1
     8    16    17    2
     9    16    18    2
    10    16     1    1
    11     1     3    1
    12     3     4   ar
    13     4     5   ar
    14     5     6   ar
    15     9     6    1
    16     9    10    1
    17    10    11    1
    18    11    12    1
    19    13    12    1
    20    13    14    1
    21     6     7   ar
    22     7     8   ar
    23    22    23   ar
    24    23    24   ar
    25    24    19   ar
    26     8     3   ar
    27    13     9    1
    28    14     9    1
    29     1     2    1
    30    11    15    1
