@<TRIPOS>MOLECULE
*****
 38 42 0 0 0
SMALL
GASTEIGER

@<TRIPOS>ATOM
      1 C         141.4316  140.5097  165.7214 C.3     1  UNL1        0.0231
      2 C         141.1257  140.1661  167.1491 C.3     1  UNL1        0.0724
      3 C         141.2321  140.2396  167.2383 C.3     1  UNL1        0.0904
      4 C         140.0835  140.9665  167.8725 C.3     1  UNL1        0.0386
      5 C         140.3386  141.9710  168.9569 C.3     1  UNL1        0.0594
      6 C         141.0365  142.8462  169.9553 C.3     1  UNL1        0.0174
      7 C         142.5100  142.5868  169.8490 C.3     1  UNL1        0.0174
      8 C         142.7229  141.5513  168.7849 C.3     1  UNL1        0.0594
      9 C         142.6358  140.5172  167.6884 C.3     1  UNL1        0.0386
     10 N         141.3808  141.1707  168.2335 N.3     1  UNL1       -0.2751
     11 C         138.3187  139.4619  165.9905 C.3     1  UNL1        0.0738
     12 C         139.6380  138.8775  165.5803 C.ar    1  UNL1        0.1433
     13 N         139.8497  137.8332  164.5246 N.ar    1  UNL1       -0.1337
     14 N         141.3196  137.5452  164.4457 N.ar    1  UNL1       -0.1337
     15 C         142.0164  138.4115  165.4526 C.ar    1  UNL1        0.1425
     16 N         140.9771  139.2350  166.1538 N.ar    1  UNL1       -0.3039
     17 C         143.4933  138.4480  165.7126 C.3     1  UNL1        0.0588
     18 C         144.3934  139.2444  164.8150 C.3     1  UNL1        0.0080
     19 C         144.0701  137.6882  166.8703 C.3     1  UNL1        0.0080
     20 C         141.4849  141.9454  165.2904 C.3     1  UNL1        0.0411
     21 C         140.2314  142.6449  164.8550 C.ar    1  UNL1       -0.0211
     22 C         139.4228  142.0957  163.7171 C.ar    1  UNL1       -0.0042
     23 C         138.1693  142.7951  163.2816 C.ar    1  UNL1       -0.0003
     24 C         137.7244  144.0436  163.9840 C.ar    1  UNL1       -0.0000
     25 C         138.5329  144.5927  165.1218 C.ar    1  UNL1       -0.0003
     26 C         139.7864  143.8933  165.5573 C.ar    1  UNL1       -0.0042
     27 C         142.7917  142.6819  165.2948 C.3     1  UNL1        0.0958
     28 N         143.4650  143.0226  163.9984 N.3     1  UNL1       -0.1791
     29 H         143.8638  142.1561  163.6371 H       1  UNL1        0.1488
     30 S         142.6738  143.6344  162.8806 S.O2    1  UNL1        0.0602
     31 O         142.6338  144.9377  163.6221 O.2     1  UNL1       -0.1530
     32 O         142.7137  142.3311  162.1391 O.2     1  UNL1       -0.1530
     33 C         141.8825  144.2462  161.7627 C.ar    1  UNL1        0.1219
     34 C         140.7885  145.2263  162.0670 C.ar    1  UNL1        0.0199
     35 C         139.9973  145.8381  160.9491 C.ar    1  UNL1        0.0014
     36 C         140.3000  145.4697  159.5269 C.ar    1  UNL1        0.0001
     37 C         141.3941  144.4896  159.2226 C.ar    1  UNL1        0.0014
     38 C         142.1853  143.8778  160.3405 C.ar    1  UNL1        0.0199
@<TRIPOS>BOND
     1    11    12    1
     2    12    13   ar
     3    13    14   ar
     4    14    15   ar
     5    15    17    1
     6    17    18    1
     7    17    19    1
     8    15    16   ar
     9     3    16    1
    10     3     4    1
    11     5     4    1
    12     5     6    1
    13     6     7    1
    14     8     7    1
    15     8     9    1
    16     8    10    1
    17    10     2    1
    18     2     1    1
    19     1    20    1
    20    20    27    1
    21    27    28    1
    22    28    30    1
    23    30    31    2
    24    30    32    2
    25    30    33    1
    26    33    34   ar
    27    34    35   ar
    28    35    36   ar
    29    36    37   ar
    30    37    38   ar
    31    20    21    1
    32    21    22   ar
    33    22    23   ar
    34    23    24   ar
    35    24    25   ar
    36    25    26   ar
    37    16    12   ar
    38     9     3    1
    39    38    33   ar
    40    26    21   ar
    41    10     5    1
    42    28    29    1
@<TRIPOS>MOLECULE
*****
 38 42 0 0 0
SMALL
GASTEIGER

@<TRIPOS>ATOM
      1 C         140.8132  141.6729  163.5634 C.3     1  UNL1        0.0231
      2 C         140.3022  141.5352  162.1599 C.3     1  UNL1        0.0724
      3 C         140.1636  141.4616  162.1666 C.3     1  UNL1        0.0904
      4 C         140.7915  140.3720  161.3489 C.3     1  UNL1        0.0386
      5 C         139.9861  139.1683  160.9587 C.3     1  UNL1        0.0594
      6 C         138.8525  138.1974  160.8098 C.3     1  UNL1        0.0174
      7 C         137.6625  138.7605  161.5287 C.3     1  UNL1        0.0174
      8 C         138.0607  140.0794  162.1220 C.3     1  UNL1        0.0594
      9 C         138.7304  141.3473  162.5941 C.3     1  UNL1        0.0386
     10 N         139.4968  140.3314  161.7697 N.3     1  UNL1       -0.2751
     11 C         143.3270  141.9431  161.5256 C.3     1  UNL1        0.0738
     12 C         142.4230  142.8868  162.2622 C.ar    1  UNL1        0.1433
     13 N         142.8144  144.2174  162.8335 N.ar    1  UNL1       -0.1337
     14 N         141.6022  144.8184  163.4811 N.ar    1  UNL1       -0.1337
     15 C         140.4617  143.8593  163.3101 C.ar    1  UNL1        0.1425
     16 N         140.9690  142.6655  162.5568 N.ar    1  UNL1       -0.3039
     17 C         139.0600  144.0589  163.8055 C.3     1  UNL1        0.0588
     18 C         138.7419  143.8577  165.2575 C.3     1  UNL1        0.0080
     19 C         137.9763  144.4596  162.8489 C.3     1  UNL1        0.0080
     20 C         141.2039  140.4521  164.3424 C.3     1  UNL1        0.0411
     21 C         140.1487  139.6106  164.9970 C.ar    1  UNL1       -0.0211
     22 C         139.2684  140.2026  166.0576 C.ar    1  UNL1       -0.0042
     23 C         138.2131  139.3612  166.7122 C.ar    1  UNL1       -0.0003
     24 C         138.0382  137.9277  166.3061 C.ar    1  UNL1       -0.0000
     25 C         138.9184  137.3358  165.2456 C.ar    1  UNL1       -0.0003
     26 C         139.9736  138.1773  164.5910 C.ar    1  UNL1       -0.0042
     27 C         142.6498  140.0727  164.4671 C.3     1  UNL1        0.0958
     28 N         143.5530  140.8491  165.3789 N.3     1  UNL1       -0.1791
     29 H         143.9713  141.5908  164.8174 H       1  UNL1        0.1488
     30 S         142.9961  141.4997  166.6103 S.O2    1  UNL1        0.0602
     31 O         143.1479  142.8464  165.9674 O.2     1  UNL1       -0.1530
     32 O         142.8442  140.1531  167.2532 O.2     1  UNL1       -0.1530
     33 C         142.4391  142.1504  167.8417 C.ar    1  UNL1        0.1219
     34 C         141.0179  142.6302  167.8590 C.ar    1  UNL1        0.0199
     35 C         140.4610  143.2809  169.0905 C.ar    1  UNL1        0.0014
     36 C         141.3251  143.4518  170.3046 C.ar    1  UNL1        0.0001
     37 C         142.7463  142.9720  170.2873 C.ar    1  UNL1        0.0014
     38 C         143.3032  142.3213  169.0559 C.ar    1  UNL1        0.0199
@<TRIPOS>BOND
     1    11    12    1
     2    12    13   ar
     3    13    14   ar
     4    14    15   ar
     5    15    17    1
     6    17    18    1
     7    17    19    1
     8    15    16   ar
     9     3    16    1
    10     3     4    1
    11     5     4    1
    12     5     6    1
    13     6     7    1
    14     8     7    1
    15     8     9    1
    16     8    10    1
    17    10     2    1
    18     2     1    1
    19     1    20    1
    20    20    27    1
    21    27    28    1
    22    28    30    1
    23    30    31    2
    24    30    32    2
    25    30    33    1
    26    33    34   ar
    27    34    35   ar
    28    35    36   ar
    29    36    37   ar
    30    37    38   ar
    31    20    21    1
    32    21    22   ar
    33    22    23   ar
    34    23    24   ar
    35    24    25   ar
    36    25    26   ar
    37    16    12   ar
    38     9     3    1
    39    38    33   ar
    40    26    21   ar
    41    10     5    1
    42    28    29    1
@<TRIPOS>MOLECULE
*****
 38 42 0 0 0
SMALL
GASTEIGER

@<TRIPOS>ATOM
      1 C         141.9847  140.4075  165.7873 C.3     1  UNL1        0.0231
      2 C         141.3377  140.2541  167.1318 C.3     1  UNL1        0.0724
      3 C         141.4297  140.3202  167.2406 C.3     1  UNL1        0.0904
      4 C         140.3126  141.2914  167.4829 C.3     1  UNL1        0.0386
      5 C         140.4657  142.3680  168.5161 C.3     1  UNL1        0.0594
      6 C         141.0371  143.2373  169.5967 C.3     1  UNL1        0.0174
      7 C         142.4154  142.7373  169.9135 C.3     1  UNL1        0.0174
      8 C         142.6958  141.5590  169.0287 C.3     1  UNL1        0.0594
      9 C         142.6999  140.4255  168.0316 C.3     1  UNL1        0.0386
     10 N         141.4907  141.3307  168.1651 N.3     1  UNL1       -0.2751
     11 C         143.8288  138.4685  166.0300 C.3     1  UNL1        0.0738
     12 C         142.3794  138.3924  165.6509 C.ar    1  UNL1        0.1433
     13 N         141.7783  137.4519  164.6488 N.ar    1  UNL1       -0.1337
     14 N         140.3042  137.7218  164.5859 N.ar    1  UNL1       -0.1337
     15 C         139.9941  138.8290  165.5491 C.ar    1  UNL1        0.1425
     16 N         141.2767  139.2435  166.2073 N.ar    1  UNL1       -0.3039
     17 C         138.6394  139.4184  165.8086 C.3     1  UNL1        0.0588
     18 C         137.7977  138.8964  166.9352 C.3     1  UNL1        0.0080
     19 C         138.1262  140.5297  164.9416 C.3     1  UNL1        0.0080
     20 C         142.2408  141.7764  165.2301 C.3     1  UNL1        0.0411
     21 C         141.1784  142.4720  164.4317 C.ar    1  UNL1       -0.0211
     22 C         140.8121  141.9649  163.0683 C.ar    1  UNL1       -0.0042
     23 C         139.7496  142.6605  162.2699 C.ar    1  UNL1       -0.0003
     24 C         139.0535  143.8632  162.8349 C.ar    1  UNL1       -0.0000
     25 C         139.4199  144.3702  164.1982 C.ar    1  UNL1       -0.0003
     26 C         140.4823  143.6747  164.9966 C.ar    1  UNL1       -0.0042
     27 C         143.5594  142.4498  165.4712 C.3     1  UNL1        0.0958
     28 N         144.7432  142.1088  164.6155 N.3     1  UNL1       -0.1791
     29 H         145.1732  141.2794  165.0249 H       1  UNL1        0.1488
     30 S         144.5556  141.8231  163.1550 S.O2    1  UNL1        0.0602
     31 O         144.2938  143.2786  162.9040 O.2     1  UNL1       -0.1530
     32 O         144.8174  140.3677  163.4060 O.2     1  UNL1       -0.1530
     33 C         144.3679  141.5375  161.6945 C.ar    1  UNL1        0.1219
     34 C         144.5715  142.6280  160.6847 C.ar    1  UNL1        0.0199
     35 C         144.3838  142.3424  159.2242 C.ar    1  UNL1        0.0014
     36 C         143.9926  140.9663  158.7733 C.ar    1  UNL1        0.0001
     37 C         143.7890  139.8758  159.7830 C.ar    1  UNL1        0.0014
     38 C         143.9767  140.1614  161.2436 C.ar    1  UNL1        0.0199
@<TRIPOS>BOND
     1    11    12    1
     2    12    13   ar
     3    13    14   ar
     4    14    15   ar
     5    15    17    1
     6    17    18    1
     7    17    19    1
     8    15    16   ar
     9     3    16    1
    10     3     4    1
    11     5     4    1
    12     5     6    1
    13     6     7    1
    14     8     7    1
    15     8     9    1
    16     8    10    1
    17    10     2    1
    18     2     1    1
    19     1    20    1
    20    20    27    1
    21    27    28    1
    22    28    30    1
    23    30    31    2
    24    30    32    2
    25    30    33    1
    26    33    34   ar
    27    34    35   ar
    28    35    36   ar
    29    36    37   ar
    30    37    38   ar
    31    20    21    1
    32    21    22   ar
    33    22    23   ar
    34    23    24   ar
    35    24    25   ar
    36    25    26   ar
    37    16    12   ar
    38     9     3    1
    39    38    33   ar
    40    26    21   ar
    41    10     5    1
    42    28    29    1
@<TRIPOS>MOLECULE
*****
 38 42 0 0 0
SMALL
GASTEIGER

@<TRIPOS>ATOM
      1 C         140.5469  140.7887  165.5321 C.3     1  UNL1        0.0231
      2 C         140.1348  141.3206  166.8727 C.3     1  UNL1        0.0724
      3 C         140.2163  141.2277  166.9696 C.3     1  UNL1        0.0904
      4 C         140.7078  142.4813  167.6307 C.3     1  UNL1        0.0386
      5 C         141.6510  142.3954  168.7939 C.3     1  UNL1        0.0594
      6 C         142.5409  141.8513  169.8718 C.3     1  UNL1        0.0174
      7 C         142.5178  140.3543  169.7800 C.3     1  UNL1        0.0174
      8 C         141.6137  139.9732  168.6454 C.3     1  UNL1        0.0594
      9 C         140.6679  139.8884  167.4718 C.3     1  UNL1        0.0386
     10 N         141.0779  141.2348  168.0359 N.3     1  UNL1       -0.2751
     11 C         139.6019  143.8939  165.1909 C.3     1  UNL1        0.0738
     12 C         138.9907  142.5390  164.9888 C.ar    1  UNL1        0.1433
     13 N         137.9897  142.1717  163.9336 N.ar    1  UNL1       -0.1337
     14 N         137.6536  140.7194  164.0991 N.ar    1  UNL1       -0.1337
     15 C         138.4467  140.1889  165.2565 C.ar    1  UNL1        0.1425
     16 N         139.2730  141.3135  165.8064 N.ar    1  UNL1       -0.3039
     17 C         138.4184  138.7810  165.7733 C.3     1  UNL1        0.0588
     18 C         137.6531  138.4556  167.0217 C.3     1  UNL1        0.0080
     19 C         139.1554  137.6985  165.0418 C.3     1  UNL1        0.0080
     20 C         141.9962  140.7696  165.1461 C.3     1  UNL1        0.0411
     21 C         142.6919  142.0472  164.7803 C.ar    1  UNL1       -0.0211
     22 C         142.3528  142.7446  163.4963 C.ar    1  UNL1       -0.0042
     23 C         143.0484  144.0222  163.1304 C.ar    1  UNL1       -0.0003
     24 C         144.0831  144.6024  164.0485 C.ar    1  UNL1       -0.0000
     25 C         144.4221  143.9050  165.3325 C.ar    1  UNL1       -0.0003
     26 C         143.7265  142.6274  165.6984 C.ar    1  UNL1       -0.0042
     27 C         142.7500  139.4728  165.1259 C.3     1  UNL1        0.0958
     28 N         143.9148  139.2968  164.1973 N.3     1  UNL1       -0.1791
     29 H         144.3836  138.4340  164.4732 H       1  UNL1        0.1488
     30 S         143.6877  139.2120  162.7171 S.O2    1  UNL1        0.0602
     31 O         142.6866  138.1161  162.9335 O.2     1  UNL1       -0.1530
     32 O         144.6888  140.3078  162.5006 O.2     1  UNL1       -0.1530
     33 C         143.4606  139.1271  161.2368 C.ar    1  UNL1        0.1219
     34 C         143.7274  140.3201  160.3674 C.ar    1  UNL1        0.0199
     35 C         143.5003  140.2353  158.8872 C.ar    1  UNL1        0.0014
     36 C         143.0064  138.9574  158.2762 C.ar    1  UNL1        0.0001
     37 C         142.7396  137.7644  159.1456 C.ar    1  UNL1        0.0014
     38 C         142.9667  137.8493  160.6258 C.ar    1  UNL1        0.0199
@<TRIPOS>BOND
     1    11    12    1
     2    12    13   ar
     3    13    14   ar
     4    14    15   ar
     5    15    17    1
     6    17    18    1
     7    17    19    1
     8    15    16   ar
     9     3    16    1
    10     3     4    1
    11     5     4    1
    12     5     6    1
    13     6     7    1
    14     8     7    1
    15     8     9    1
    16     8    10    1
    17    10     2    1
    18     2     1    1
    19     1    20    1
    20    20    27    1
    21    27    28    1
    22    28    30    1
    23    30    31    2
    24    30    32    2
    25    30    33    1
    26    33    34   ar
    27    34    35   ar
    28    35    36   ar
    29    36    37   ar
    30    37    38   ar
    31    20    21    1
    32    21    22   ar
    33    22    23   ar
    34    23    24   ar
    35    24    25   ar
    36    25    26   ar
    37    16    12   ar
    38     9     3    1
    39    38    33   ar
    40    26    21   ar
    41    10     5    1
    42    28    29    1
@<TRIPOS>MOLECULE
*****
 38 42 0 0 0
SMALL
GASTEIGER

@<TRIPOS>ATOM
      1 C         141.3433  140.1949  164.9338 C.3     1  UNL1        0.0231
      2 C         141.5152  139.3377  166.1527 C.3     1  UNL1        0.0724
      3 C         141.4048  139.3975  166.2470 C.3     1  UNL1        0.0904
      4 C         142.4683  139.4936  167.3004 C.3     1  UNL1        0.0386
      5 C         142.1338  140.0416  168.6561 C.3     1  UNL1        0.0594
      6 C         141.3765  140.6263  169.8113 C.3     1  UNL1        0.0174
      7 C         139.9554  140.8317  169.3776 C.3     1  UNL1        0.0174
      8 C         139.8343  140.3740  167.9542 C.3     1  UNL1        0.0594
      9 C         140.0068  139.8495  166.5492 C.3     1  UNL1        0.0386
     10 N         141.1807  139.8857  167.5083 N.3     1  UNL1       -0.2751
     11 C         144.3767  139.2847  164.9035 C.3     1  UNL1        0.0738
     12 C         143.1054  138.7977  164.2737 C.ar    1  UNL1        0.1433
     13 N         142.9768  138.1733  162.9159 N.ar    1  UNL1       -0.1337
     14 N         141.5314  137.8393  162.6943 N.ar    1  UNL1       -0.1337
     15 C         140.7666  138.2572  163.9151 C.ar    1  UNL1        0.1425
     16 N         141.7394  138.8495  164.8913 N.ar    1  UNL1       -0.3039
     17 C         139.2885  138.1089  164.1232 C.3     1  UNL1        0.0588
     18 C         138.3299  138.9040  163.2874 C.3     1  UNL1        0.0080
     19 C         138.7690  137.1653  165.1673 C.3     1  UNL1        0.0080
     20 C         141.4454  141.6872  165.0460 C.3     1  UNL1        0.0411
     21 C         140.2185  142.5365  164.8931 C.ar    1  UNL1       -0.0211
     22 C         139.2409  142.2507  163.7918 C.ar    1  UNL1       -0.0042
     23 C         138.0140  143.1000  163.6389 C.ar    1  UNL1       -0.0003
     24 C         137.7646  144.2352  164.5872 C.ar    1  UNL1       -0.0000
     25 C         138.7422  144.5210  165.6885 C.ar    1  UNL1       -0.0003
     26 C         139.9691  143.6717  165.8414 C.ar    1  UNL1       -0.0042
     27 C         142.7744  142.3303  165.3111 C.3     1  UNL1        0.0958
     28 N         143.4844  143.0651  164.2129 N.3     1  UNL1       -0.1791
     29 H         144.1331  142.4031  163.7872 H       1  UNL1        0.1488
     30 S         142.6991  143.6824  163.0939 S.O2    1  UNL1        0.0602
     31 O         142.8727  142.4327  162.2827 O.2     1  UNL1       -0.1530
     32 O         142.5255  144.9321  163.9051 O.2     1  UNL1       -0.1530
     33 C         141.9138  144.2997  161.9749 C.ar    1  UNL1        0.1219
     34 C         140.8183  145.2785  162.2782 C.ar    1  UNL1        0.0199
     35 C         140.0330  145.8957  161.1591 C.ar    1  UNL1        0.0014
     36 C         140.3432  145.5343  159.7368 C.ar    1  UNL1        0.0001
     37 C         141.4387  144.5555  159.4334 C.ar    1  UNL1        0.0014
     38 C         142.2240  143.9382  160.5525 C.ar    1  UNL1        0.0199
@<TRIPOS>BOND
     1    11    12    1
     2    12    13   ar
     3    13    14   ar
     4    14    15   ar
     5    15    17    1
     6    17    18    1
     7    17    19    1
     8    15    16   ar
     9     3    16    1
    10     3     4    1
    11     5     4    1
    12     5     6    1
    13     6     7    1
    14     8     7    1
    15     8     9    1
    16     8    10    1
    17    10     2    1
    18     2     1    1
    19     1    20    1
    20    20    27    1
    21    27    28    1
    22    28    30    1
    23    30    31    2
    24    30    32    2
    25    30    33    1
    26    33    34   ar
    27    34    35   ar
    28    35    36   ar
    29    36    37   ar
    30    37    38   ar
    31    20    21    1
    32    21    22   ar
    33    22    23   ar
    34    23    24   ar
    35    24    25   ar
    36    25    26   ar
    37    16    12   ar
    38     9     3    1
    39    38    33   ar
    40    26    21   ar
    41    10     5    1
    42    28    29    1
@<TRIPOS>MOLECULE
*****
 38 42 0 0 0
SMALL
GASTEIGER

@<TRIPOS>ATOM
      1 C         140.5766  141.7913  163.7167 C.3     1  UNL1        0.0231
      2 C         139.9910  141.7615  162.3360 C.3     1  UNL1        0.0724
      3 C         139.8585  141.6775  162.3297 C.3     1  UNL1        0.0904
      4 C         140.6222  140.6798  161.5104 C.3     1  UNL1        0.0386
      5 C         139.9406  139.4403  161.0114 C.3     1  UNL1        0.0594
      6 C         138.8982  138.3963  160.7402 C.3     1  UNL1        0.0174
      7 C         137.6228  138.8328  161.3981 C.3     1  UNL1        0.0174
      8 C         137.8769  140.1465  162.0760 C.3     1  UNL1        0.0594
      9 C         138.4131  141.4358  162.6500 C.3     1  UNL1        0.0386
     10 N         139.3094  140.5220  161.8370 N.3     1  UNL1       -0.2751
     11 C         138.8082  143.6036  164.7456 C.3     1  UNL1        0.0738
     12 C         140.0574  143.8024  163.9392 C.ar    1  UNL1        0.1433
     13 N         141.0430  144.9214  164.1016 N.ar    1  UNL1       -0.1337
     14 N         142.1349  144.7276  163.0916 N.ar    1  UNL1       -0.1337
     15 C         141.8241  143.4889  162.3049 C.ar    1  UNL1        0.1425
     16 N         140.5401  142.9171  162.8287 N.ar    1  UNL1       -0.3039
     17 C         142.6519  142.9216  161.1901 C.3     1  UNL1        0.0588
     18 C         142.2881  143.2105  159.7638 C.3     1  UNL1        0.0080
     19 C         143.8436  142.0654  161.5014 C.3     1  UNL1        0.0080
     20 C         141.0323  140.5181  164.3656 C.3     1  UNL1        0.0411
     21 C         140.0329  139.6086  165.0167 C.ar    1  UNL1       -0.0211
     22 C         139.1687  140.1193  166.1313 C.ar    1  UNL1       -0.0042
     23 C         138.1692  139.2098  166.7824 C.ar    1  UNL1       -0.0003
     24 C         138.0340  137.7896  166.3189 C.ar    1  UNL1       -0.0000
     25 C         138.8983  137.2789  165.2044 C.ar    1  UNL1       -0.0003
     26 C         139.8977  138.1884  164.5532 C.ar    1  UNL1       -0.0042
     27 C         142.4876  140.1544  164.3636 C.3     1  UNL1        0.0958
     28 N         143.4299  140.8260  165.3181 N.3     1  UNL1       -0.1791
     29 H         143.9213  141.5463  164.7889 H       1  UNL1        0.1488
     30 S         142.8994  141.4849  166.5568 S.O2    1  UNL1        0.0602
     31 O         142.7651  140.1428  167.2131 O.2     1  UNL1       -0.1530
     32 O         143.0337  142.8269  165.9005 O.2     1  UNL1       -0.1530
     33 C         142.3689  142.1437  167.7955 C.ar    1  UNL1        0.1219
     34 C         140.9524  142.6357  167.8354 C.ar    1  UNL1        0.0199
     35 C         140.4218  143.2945  169.0742 C.ar    1  UNL1        0.0014
     36 C         141.3078  143.4615  170.2730 C.ar    1  UNL1        0.0001
     37 C         142.7244  142.9695  170.2331 C.ar    1  UNL1        0.0014
     38 C         143.2549  142.3107  168.9944 C.ar    1  UNL1        0.0199
@<TRIPOS>BOND
     1    11    12    1
     2    12    13   ar
     3    13    14   ar
     4    14    15   ar
     5    15    17    1
     6    17    18    1
     7    17    19    1
     8    15    16   ar
     9     3    16    1
    10     3     4    1
    11     5     4    1
    12     5     6    1
    13     6     7    1
    14     8     7    1
    15     8     9    1
    16     8    10    1
    17    10     2    1
    18     2     1    1
    19     1    20    1
    20    20    27    1
    21    27    28    1
    22    28    30    1
    23    30    31    2
    24    30    32    2
    25    30    33    1
    26    33    34   ar
    27    34    35   ar
    28    35    36   ar
    29    36    37   ar
    30    37    38   ar
    31    20    21    1
    32    21    22   ar
    33    22    23   ar
    34    23    24   ar
    35    24    25   ar
    36    25    26   ar
    37    16    12   ar
    38     9     3    1
    39    38    33   ar
    40    26    21   ar
    41    10     5    1
    42    28    29    1
@<TRIPOS>MOLECULE
*****
 38 42 0 0 0
SMALL
GASTEIGER

@<TRIPOS>ATOM
      1 C         142.6909  142.6962  163.3971 C.3     1  UNL1        0.0231
      2 C         142.8606  143.6996  162.2950 C.3     1  UNL1        0.0724
      3 C         142.7680  143.8206  162.3327 C.3     1  UNL1        0.0904
      4 C         142.0670  143.5890  161.0269 C.3     1  UNL1        0.0386
      5 C         140.9174  144.4656  160.6271 C.3     1  UNL1        0.0594
      6 C         139.8690  145.5383  160.6413 C.3     1  UNL1        0.0174
      7 C         140.0147  146.3118  161.9182 C.3     1  UNL1        0.0174
      8 C         141.1530  145.7172  162.6931 C.3     1  UNL1        0.0594
      9 C         142.3193  144.9288  163.2386 C.3     1  UNL1        0.0386
     10 N         141.7110  144.5762  161.8952 N.3     1  UNL1       -0.2751
     11 C         144.2908  143.8523  165.2188 C.3     1  UNL1        0.0738
     12 C         144.6176  142.9586  164.0592 C.ar    1  UNL1        0.1433
     13 N         145.7018  141.9226  164.0227 N.ar    1  UNL1       -0.1337
     14 N         145.6718  141.2678  162.6735 N.ar    1  UNL1       -0.1337
     15 C         144.5692  141.8990  161.8762 C.ar    1  UNL1        0.1425
     16 N         143.9177  142.9440  162.7326 N.ar    1  UNL1       -0.3039
     17 C         144.1855  141.5471  160.4695 C.3     1  UNL1        0.0588
     18 C         144.6570  142.3986  159.3282 C.3     1  UNL1        0.0080
     19 C         143.3302  140.3437  160.2040 C.3     1  UNL1        0.0080
     20 C         141.4156  141.9147  163.5098 C.3     1  UNL1        0.0411
     21 C         140.1420  142.6086  163.8926 C.ar    1  UNL1       -0.0211
     22 C         138.9535  142.5522  162.9790 C.ar    1  UNL1       -0.0042
     23 C         137.6799  143.2461  163.3617 C.ar    1  UNL1       -0.0003
     24 C         137.5947  143.9963  164.6579 C.ar    1  UNL1       -0.0000
     25 C         138.7831  144.0526  165.5714 C.ar    1  UNL1       -0.0003
     26 C         140.0568  143.3588  165.1887 C.ar    1  UNL1       -0.0042
     27 C         141.4138  140.4391  163.2399 C.3     1  UNL1        0.0958
     28 N         142.1033  139.5025  164.1871 N.3     1  UNL1       -0.1791
     29 H         143.1059  139.6454  164.0649 H       1  UNL1        0.1488
     30 S         141.8299  139.5891  165.6594 S.O2    1  UNL1        0.0602
     31 O         140.4402  139.0727  165.4317 O.2     1  UNL1       -0.1530
     32 O         143.2197  140.1055  165.8871 O.2     1  UNL1       -0.1530
     33 C         141.5565  139.6757  167.1317 C.ar    1  UNL1        0.1219
     34 C         140.2055  140.1084  167.6195 C.ar    1  UNL1        0.0199
     35 C         139.9321  140.1950  169.0918 C.ar    1  UNL1        0.0014
     36 C         141.0096  139.8489  170.0764 C.ar    1  UNL1        0.0001
     37 C         142.3605  139.4163  169.5886 C.ar    1  UNL1        0.0014
     38 C         142.6339  139.3297  168.1163 C.ar    1  UNL1        0.0199
@<TRIPOS>BOND
     1    11    12    1
     2    12    13   ar
     3    13    14   ar
     4    14    15   ar
     5    15    17    1
     6    17    18    1
     7    17    19    1
     8    15    16   ar
     9     3    16    1
    10     3     4    1
    11     5     4    1
    12     5     6    1
    13     6     7    1
    14     8     7    1
    15     8     9    1
    16     8    10    1
    17    10     2    1
    18     2     1    1
    19     1    20    1
    20    20    27    1
    21    27    28    1
    22    28    30    1
    23    30    31    2
    24    30    32    2
    25    30    33    1
    26    33    34   ar
    27    34    35   ar
    28    35    36   ar
    29    36    37   ar
    30    37    38   ar
    31    20    21    1
    32    21    22   ar
    33    22    23   ar
    34    23    24   ar
    35    24    25   ar
    36    25    26   ar
    37    16    12   ar
    38     9     3    1
    39    38    33   ar
    40    26    21   ar
    41    10     5    1
    42    28    29    1
@<TRIPOS>MOLECULE
*****
 38 42 0 0 0
SMALL
GASTEIGER

@<TRIPOS>ATOM
      1 C         140.6444  140.2170  165.4263 C.3     1  UNL1        0.0231
      2 C         140.6992  139.9028  166.8921 C.3     1  UNL1        0.0724
      3 C         140.7849  140.0249  166.9413 C.3     1  UNL1        0.0904
      4 C         139.7645  140.2026  168.0263 C.3     1  UNL1        0.0386
      5 C         139.9177  141.3107  169.0256 C.3     1  UNL1        0.0594
      6 C         140.4547  142.4988  169.7672 C.3     1  UNL1        0.0174
      7 C         141.7214  142.9332  169.0914 C.3     1  UNL1        0.0174
      8 C         141.9672  142.0137  167.9321 C.3     1  UNL1        0.0594
      9 C         141.9585  140.9552  166.8557 C.3     1  UNL1        0.0386
     10 N         140.8524  141.0109  167.8914 N.3     1  UNL1       -0.2751
     11 C         137.9797  138.6058  166.0655 C.3     1  UNL1        0.0738
     12 C         139.3424  138.2645  165.5393 C.ar    1  UNL1        0.1433
     13 N         139.6549  137.2110  164.5182 N.ar    1  UNL1       -0.1337
     14 N         141.1373  137.2123  164.2898 N.ar    1  UNL1       -0.1337
     15 C         141.7411  138.2664  165.1696 C.ar    1  UNL1        0.1425
     16 N         140.6318  138.9168  165.9419 N.ar    1  UNL1       -0.3039
     17 C         143.1984  138.6100  165.2611 C.3     1  UNL1        0.0588
     18 C         143.8477  139.4190  164.1776 C.3     1  UNL1        0.0080
     19 C         144.0064  138.1445  166.4361 C.3     1  UNL1        0.0080
     20 C         140.0436  141.5092  164.9583 C.3     1  UNL1        0.0411
     21 C         140.8842  142.4984  164.2068 C.ar    1  UNL1       -0.0211
     22 C         140.9921  143.9134  164.6931 C.ar    1  UNL1       -0.0042
     23 C         141.8327  144.9027  163.9416 C.ar    1  UNL1       -0.0003
     24 C         142.5655  144.4770  162.7038 C.ar    1  UNL1       -0.0000
     25 C         142.4576  143.0621  162.2176 C.ar    1  UNL1       -0.0003
     26 C         141.6170  142.0728  162.9691 C.ar    1  UNL1       -0.0042
     27 C         138.6021  141.8124  165.2419 C.3     1  UNL1        0.0958
     28 N         137.5410  141.3859  164.2713 N.3     1  UNL1       -0.1791
     29 H         136.7314  141.9832  164.4388 H       1  UNL1        0.1488
     30 S         137.8126  141.4283  162.7967 S.O2    1  UNL1        0.0602
     31 O         137.9363  139.9336  162.7765 O.2     1  UNL1       -0.1530
     32 O         137.6889  142.9230  162.8169 O.2     1  UNL1       -0.1530
     33 C         138.0842  141.4707  161.3221 C.ar    1  UNL1        0.1219
     34 C         137.7763  140.2766  160.4680 C.ar    1  UNL1        0.0199
     35 C         138.0479  140.3190  158.9935 C.ar    1  UNL1        0.0014
     36 C         138.6274  141.5556  158.3729 C.ar    1  UNL1        0.0001
     37 C         138.9354  142.7497  159.2269 C.ar    1  UNL1        0.0014
     38 C         138.6638  142.7073  160.7015 C.ar    1  UNL1        0.0199
@<TRIPOS>BOND
     1    11    12    1
     2    12    13   ar
     3    13    14   ar
     4    14    15   ar
     5    15    17    1
     6    17    18    1
     7    17    19    1
     8    15    16   ar
     9     3    16    1
    10     3     4    1
    11     5     4    1
    12     5     6    1
    13     6     7    1
    14     8     7    1
    15     8     9    1
    16     8    10    1
    17    10     2    1
    18     2     1    1
    19     1    20    1
    20    20    27    1
    21    27    28    1
    22    28    30    1
    23    30    31    2
    24    30    32    2
    25    30    33    1
    26    33    34   ar
    27    34    35   ar
    28    35    36   ar
    29    36    37   ar
    30    37    38   ar
    31    20    21    1
    32    21    22   ar
    33    22    23   ar
    34    23    24   ar
    35    24    25   ar
    36    25    26   ar
    37    16    12   ar
    38     9     3    1
    39    38    33   ar
    40    26    21   ar
    41    10     5    1
    42    28    29    1
@<TRIPOS>MOLECULE
*****
 38 42 0 0 0
SMALL
GASTEIGER

@<TRIPOS>ATOM
      1 C         140.2527  142.2498  163.7734 C.3     1  UNL1        0.0231
      2 C         139.8178  141.7640  165.1243 C.3     1  UNL1        0.0724
      3 C         139.9373  141.6822  165.1850 C.3     1  UNL1        0.0904
      4 C         139.9595  142.6892  166.2964 C.3     1  UNL1        0.0386
      5 C         140.9613  142.5602  167.4054 C.3     1  UNL1        0.0594
      6 C         142.0848  142.0553  168.2614 C.3     1  UNL1        0.0174
      7 C         142.6375  140.8180  167.6182 C.3     1  UNL1        0.0174
      8 C         141.8555  140.5583  166.3648 C.3     1  UNL1        0.0594
      9 C         140.9168  140.5461  165.1825 C.3     1  UNL1        0.0386
     10 N         140.8196  141.6350  166.2332 N.3     1  UNL1       -0.2751
     11 C         137.9341  144.2112  164.6940 C.3     1  UNL1        0.0738
     12 C         138.0147  142.9736  163.8503 C.ar    1  UNL1        0.1433
     13 N         137.1888  142.6811  162.6328 N.ar    1  UNL1       -0.1337
     14 N         137.5991  141.3380  162.1060 N.ar    1  UNL1       -0.1337
     15 C         138.6785  140.8002  162.9979 C.ar    1  UNL1        0.1425
     16 N         138.9355  141.8111  164.0759 N.ar    1  UNL1       -0.3039
     17 C         139.3783  139.4829  162.8396 C.3     1  UNL1        0.0588
     18 C         140.5096  139.3471  161.8641 C.3     1  UNL1        0.0080
     19 C         138.9468  138.3014  163.6569 C.3     1  UNL1        0.0080
     20 C         141.3984  143.2107  163.6550 C.3     1  UNL1        0.0411
     21 C         142.8026  142.6941  163.5483 C.ar    1  UNL1       -0.0211
     22 C         143.8134  143.0474  164.5989 C.ar    1  UNL1       -0.0042
     23 C         145.2177  142.5309  164.4923 C.ar    1  UNL1       -0.0003
     24 C         145.6111  141.6612  163.3352 C.ar    1  UNL1       -0.0000
     25 C         144.6003  141.3080  162.2847 C.ar    1  UNL1       -0.0003
     26 C         143.1961  141.8245  162.3913 C.ar    1  UNL1       -0.0042
     27 C         141.1399  144.6882  163.6433 C.3     1  UNL1        0.0958
     28 N         141.3550  145.4773  162.3859 N.3     1  UNL1       -0.1791
     29 H         142.3636  145.5638  162.2614 H       1  UNL1        0.1488
     30 S         140.7991  144.9804  161.0843 S.O2    1  UNL1        0.0602
     31 O         139.4088  145.2692  161.5679 O.2     1  UNL1       -0.1530
     32 O         142.1893  144.6916  160.6008 O.2     1  UNL1       -0.1530
     33 C         140.2431  144.4835  159.7828 C.ar    1  UNL1        0.1219
     34 C         139.4807  143.1925  159.7369 C.ar    1  UNL1        0.0199
     35 C         138.9248  142.6956  158.4354 C.ar    1  UNL1        0.0014
     36 C         139.1313  143.4896  157.1797 C.ar    1  UNL1        0.0001
     37 C         139.8937  144.7807  157.2255 C.ar    1  UNL1        0.0014
     38 C         140.4497  145.2776  158.5271 C.ar    1  UNL1        0.0199
@<TRIPOS>BOND
     1    11    12    1
     2    12    13   ar
     3    13    14   ar
     4    14    15   ar
     5    15    17    1
     6    17    18    1
     7    17    19    1
     8    15    16   ar
     9     3    16    1
    10     3     4    1
    11     5     4    1
    12     5     6    1
    13     6     7    1
    14     8     7    1
    15     8     9    1
    16     8    10    1
    17    10     2    1
    18     2     1    1
    19     1    20    1
    20    20    27    1
    21    27    28    1
    22    28    30    1
    23    30    31    2
    24    30    32    2
    25    30    33    1
    26    33    34   ar
    27    34    35   ar
    28    35    36   ar
    29    36    37   ar
    30    37    38   ar
    31    20    21    1
    32    21    22   ar
    33    22    23   ar
    34    23    24   ar
    35    24    25   ar
    36    25    26   ar
    37    16    12   ar
    38     9     3    1
    39    38    33   ar
    40    26    21   ar
    41    10     5    1
    42    28    29    1
