@<TRIPOS>MOLECULE
*****
 41 44 0 0 0
SMALL
GASTEIGER

@<TRIPOS>ATOM
      1 C         139.4357  139.4707  160.4819 C.ar    1  UNL1        0.0597
      2 C         139.3122  138.5823  161.6841 C.ar    1  UNL1        0.0423
      3 C         138.6145  139.0794  162.9154 C.ar    1  UNL1        0.1504
      4 C         138.0403  140.4648  162.9444 C.ar    1  UNL1        0.0744
      5 C         138.1638  141.3532  161.7422 C.ar    1  UNL1        0.1416
      6 C         138.8615  140.8561  160.5109 C.ar    1  UNL1        0.0416
      7 N         141.6133  139.1651  159.0981 N.am    1  UNL1       -0.2644
      8 C         140.1334  138.9736  159.2505 C.2     1  UNL1        0.2508
      9 O         139.3512  138.2851  158.1716 O.2     1  UNL1       -0.2698
     10 H         142.1267  139.6171  159.8062 H       1  UNL1        0.1566
     11 N         143.4572  137.2262  156.2862 N.ar    1  UNL1       -0.2357
     12 C         143.3121  138.5804  155.6574 C.ar    1  UNL1        0.0988
     13 C         142.6037  139.4715  156.6343 C.ar    1  UNL1        0.0565
     14 C         142.3110  138.6681  157.8667 C.ar    1  UNL1        0.1557
     15 N         142.8384  137.2805  157.6516 N.ar    1  UNL1       -0.1534
     16 C         144.1068  136.0283  155.6597 C.3     1  UNL1        0.2423
     17 P         143.3799  134.7169  155.6176 P.3     1  UNL1        0.3677
     18 O         142.6529  133.4055  155.5755 O.2     1  UNL1       -0.2557
     19 O         144.1248  134.2647  156.8385 O.3     1  UNL1       -0.2928
     20 C         145.2785  132.1839  157.8822 C.3     1  UNL1        0.0352
     21 C         144.0752  132.8251  157.2570 C.3     1  UNL1        0.1515
     22 O         142.6350  135.1691  154.3966 O.3     1  UNL1       -0.2928
     23 C         141.1357  135.1272  154.3744 C.3     1  UNL1        0.1515
     24 C         140.3451  136.2154  155.0383 C.3     1  UNL1        0.0352
     25 O         138.4910  138.1910  164.1178 O.3     1  UNL1       -0.4348
     26 C         138.7339  138.7473  165.4894 C.ar    1  UNL1        0.2484
     27 C         139.9943  139.5077  165.7780 C.ar    1  UNL1        0.0614
     28 C         140.2373  140.0640  167.1496 C.ar    1  UNL1        0.0304
     29 C         139.2197  139.8600  168.2328 C.ar    1  UNL1        0.1564
     30 N         137.9594  139.0996  167.9442 N.ar    1  UNL1       -0.1404
     31 N         137.7165  138.5433  166.5725 N.ar    1  UNL1       -0.1097
     32 C         139.4627  140.4163  169.6045 C.2     1  UNL1        0.2685
     33 O         139.2330  139.5584  170.8132 O.2     1  UNL1       -0.2682
     34 N         139.9353  141.8306  169.7673 N.am    1  UNL1       -0.2747
     35 C         140.2641  142.9538  168.8290 C.3     1  UNL1        0.0955
     36 C         140.6037  143.8307  169.9977 C.3     1  UNL1        0.0430
     37 C         140.2749  142.7075  170.9360 C.3     1  UNL1        0.0955
     38 O         137.5896  142.7386  161.7712 O.3     1  UNL1       -0.4791
     39 C         138.1881  143.7799  162.6697 C.3     1  UNL1        0.1661
     40 C         139.2877  144.6655  162.1630 C.3     1  UNL1        0.0472
     41 C         137.6872  143.9356  164.0750 C.3     1  UNL1        0.0472
@<TRIPOS>BOND
     1    20    21    1
     2    21    19    1
     3    19    17    1
     4    17    18    2
     5    17    16    1
     6    16    11    1
     7    11    12   ar
     8    12    13   ar
     9    13    14   ar
    10    14     7    1
    11     7     8   am
    12     8     9    2
    13     8     1    1
    14     1     2   ar
    15     2     3   ar
    16     3    25    1
    17    25    26    1
    18    26    27   ar
    19    27    28   ar
    20    28    29   ar
    21    29    32    1
    22    32    33    2
    23    32    34   am
    24    34    35    1
    25    35    36    1
    26    36    37    1
    27    29    30   ar
    28    30    31   ar
    29     3     4   ar
    30     4     5   ar
    31     5    38    1
    32    38    39    1
    33    39    40    1
    34    39    41    1
    35     5     6   ar
    36    14    15   ar
    37    17    22    1
    38    22    23    1
    39    23    24    1
    40    15    11   ar
    41     6     1   ar
    42    31    26   ar
    43    37    34    1
    44     7    10    1
@<TRIPOS>MOLECULE
*****
 41 44 0 0 0
SMALL
GASTEIGER

@<TRIPOS>ATOM
      1 C         139.5669  139.0109  160.4185 C.ar    1  UNL1        0.0597
      2 C         139.5234  138.1700  161.6598 C.ar    1  UNL1        0.0423
      3 C         138.8173  138.6746  162.8831 C.ar    1  UNL1        0.1504
      4 C         138.1546  140.0202  162.8652 C.ar    1  UNL1        0.0744
      5 C         138.1981  140.8611  161.6239 C.ar    1  UNL1        0.1416
      6 C         138.9042  140.3565  160.4005 C.ar    1  UNL1        0.0416
      7 N         141.7719  138.4619  159.1589 N.am    1  UNL1       -0.2644
      8 C         140.2731  138.5063  159.1950 C.2     1  UNL1        0.2508
      9 O         139.4803  138.0460  158.0077 O.2     1  UNL1       -0.2698
     10 H         142.2923  138.7640  159.9381 H       1  UNL1        0.1566
     11 N         143.4313  136.4746  156.2671 N.ar    1  UNL1       -0.2357
     12 C         143.6982  137.8871  155.8385 C.ar    1  UNL1        0.0988
     13 C         143.1091  138.8035  156.8697 C.ar    1  UNL1        0.0565
     14 C         142.4781  137.9573  157.9354 C.ar    1  UNL1        0.1557
     15 N         142.6772  136.5180  157.5630 N.ar    1  UNL1       -0.1534
     16 C         143.8457  135.2362  155.5292 C.3     1  UNL1        0.2423
     17 P         142.8448  134.1509  155.2639 P.3     1  UNL1        0.3677
     18 O         141.8439  133.0656  154.9986 O.2     1  UNL1       -0.2557
     19 O         142.4169  134.8522  154.0089 O.3     1  UNL1       -0.2928
     20 C         140.4608  136.5130  154.4153 C.3     1  UNL1        0.0352
     21 C         140.9801  135.2387  153.8183 C.3     1  UNL1        0.1515
     22 O         143.2727  133.4496  156.5189 O.3     1  UNL1       -0.2928
     23 C         144.6234  132.8012  156.5925 C.3     1  UNL1        0.1515
     24 C         145.0571  132.1125  157.8525 C.3     1  UNL1        0.0352
     25 O         138.7738  137.8337  164.1246 O.3     1  UNL1       -0.4348
     26 C         138.9208  138.4769  165.4716 C.ar    1  UNL1        0.2484
     27 C         140.2095  139.1471  165.8462 C.ar    1  UNL1        0.0614
     28 C         140.3564  139.7904  167.1933 C.ar    1  UNL1        0.0304
     29 C         139.2147  139.7634  168.1658 C.ar    1  UNL1        0.1564
     30 N         137.9261  139.0932  167.7913 N.ar    1  UNL1       -0.1404
     31 N         137.7791  138.4500  166.4442 N.ar    1  UNL1       -0.1097
     32 C         139.3616  140.4066  169.5129 C.2     1  UNL1        0.2685
     33 O         139.0005  139.6427  170.7522 O.2     1  UNL1       -0.2682
     34 N         139.8697  141.8139  169.6207 N.am    1  UNL1       -0.2747
     35 C         140.3165  142.8583  168.6410 C.3     1  UNL1        0.0955
     36 C         140.5883  143.8040  169.7731 C.3     1  UNL1        0.0430
     37 C         140.1416  142.7596  170.7528 C.3     1  UNL1        0.0955
     38 O         137.5354  142.2067  161.6059 O.3     1  UNL1       -0.4791
     39 C         138.2277  143.3918  162.2109 C.3     1  UNL1        0.1661
     40 C         139.4887  143.9196  161.5934 C.3     1  UNL1        0.0472
     41 C         137.6590  144.0492  163.4334 C.3     1  UNL1        0.0472
@<TRIPOS>BOND
     1    20    21    1
     2    21    19    1
     3    19    17    1
     4    17    18    2
     5    17    16    1
     6    16    11    1
     7    11    12   ar
     8    12    13   ar
     9    13    14   ar
    10    14     7    1
    11     7     8   am
    12     8     9    2
    13     8     1    1
    14     1     2   ar
    15     2     3   ar
    16     3    25    1
    17    25    26    1
    18    26    27   ar
    19    27    28   ar
    20    28    29   ar
    21    29    32    1
    22    32    33    2
    23    32    34   am
    24    34    35    1
    25    35    36    1
    26    36    37    1
    27    29    30   ar
    28    30    31   ar
    29     3     4   ar
    30     4     5   ar
    31     5    38    1
    32    38    39    1
    33    39    40    1
    34    39    41    1
    35     5     6   ar
    36    14    15   ar
    37    17    22    1
    38    22    23    1
    39    23    24    1
    40    15    11   ar
    41     6     1   ar
    42    31    26   ar
    43    37    34    1
    44     7    10    1
@<TRIPOS>MOLECULE
*****
 41 44 0 0 0
SMALL
GASTEIGER

@<TRIPOS>ATOM
      1 C         139.1449  139.9120  160.4839 C.ar    1  UNL1        0.0597
      2 C         139.0981  138.9531  161.6364 C.ar    1  UNL1        0.0423
      3 C         138.4975  139.3797  162.9430 C.ar    1  UNL1        0.1504
      4 C         137.9435  140.7651  163.0970 C.ar    1  UNL1        0.0744
      5 C         137.9903  141.7240  161.9445 C.ar    1  UNL1        0.1416
      6 C         138.5909  141.2974  160.6379 C.ar    1  UNL1        0.0416
      7 N         138.8556  139.1005  158.0328 N.am    1  UNL1       -0.2644
      8 C         139.7455  139.4854  159.1772 C.2     1  UNL1        0.2508
      9 O         141.2362  139.4438  159.0151 O.2     1  UNL1       -0.2698
     10 H         137.8773  139.1278  158.1392 H       1  UNL1        0.1566
     11 N         140.8225  137.5314  155.0772 N.ar    1  UNL1       -0.2357
     12 C         139.9387  138.5037  154.3535 C.ar    1  UNL1        0.0988
     13 C         139.0943  139.2099  155.3727 C.ar    1  UNL1        0.0565
     14 C         139.4563  138.6739  156.7261 C.ar    1  UNL1        0.1557
     15 N         140.5243  137.6366  156.5435 N.ar    1  UNL1       -0.1534
     16 C         141.8278  136.6149  154.4455 C.3     1  UNL1        0.2423
     17 P         143.1639  136.4057  155.0944 P.3     1  UNL1        0.3677
     18 O         144.5000  136.1964  155.7433 O.2     1  UNL1       -0.2557
     19 O         143.4507  137.8734  154.9774 O.3     1  UNL1       -0.2928
     20 C         145.1654  139.7787  155.4011 C.3     1  UNL1        0.0352
     21 C         144.8678  138.3647  154.9986 C.3     1  UNL1        0.1515
     22 O         142.8772  134.9380  155.2114 O.3     1  UNL1       -0.2928
     23 C         143.8118  134.0500  155.9783 C.3     1  UNL1        0.1515
     24 C         143.3550  133.4019  157.2516 C.3     1  UNL1        0.0352
     25 O         138.4507  138.4208  164.0956 O.3     1  UNL1       -0.4348
     26 C         138.7301  138.9065  165.4870 C.ar    1  UNL1        0.2484
     27 C         140.0259  139.5970  165.7943 C.ar    1  UNL1        0.0614
     28 C         140.3053  140.0827  167.1857 C.ar    1  UNL1        0.0304
     29 C         139.2890  139.8779  168.2699 C.ar    1  UNL1        0.1564
     30 N         137.9933  139.1874  167.9625 N.ar    1  UNL1       -0.1404
     31 N         137.7139  138.7017  166.5711 N.ar    1  UNL1       -0.1097
     32 C         139.5684  140.3636  169.6613 C.2     1  UNL1        0.2685
     33 O         139.3040  139.4683  170.8354 O.2     1  UNL1       -0.2682
     34 N         140.1122  141.7446  169.8785 N.am    1  UNL1       -0.2747
     35 C         140.4907  142.8883  168.9848 C.3     1  UNL1        0.0955
     36 C         140.8813  143.6976  170.1859 C.3     1  UNL1        0.0430
     37 C         140.5029  142.5538  171.0796 C.3     1  UNL1        0.0955
     38 O         137.4363  143.1094  162.0986 O.3     1  UNL1       -0.4791
     39 C         138.1193  144.0942  163.0005 C.3     1  UNL1        0.1661
     40 C         139.1566  145.0251  162.4459 C.3     1  UNL1        0.0472
     41 C         137.7651  144.1482  164.4571 C.3     1  UNL1        0.0472
@<TRIPOS>BOND
     1    20    21    1
     2    21    19    1
     3    19    17    1
     4    17    18    2
     5    17    16    1
     6    16    11    1
     7    11    12   ar
     8    12    13   ar
     9    13    14   ar
    10    14     7    1
    11     7     8   am
    12     8     9    2
    13     8     1    1
    14     1     2   ar
    15     2     3   ar
    16     3    25    1
    17    25    26    1
    18    26    27   ar
    19    27    28   ar
    20    28    29   ar
    21    29    32    1
    22    32    33    2
    23    32    34   am
    24    34    35    1
    25    35    36    1
    26    36    37    1
    27    29    30   ar
    28    30    31   ar
    29     3     4   ar
    30     4     5   ar
    31     5    38    1
    32    38    39    1
    33    39    40    1
    34    39    41    1
    35     5     6   ar
    36    14    15   ar
    37    17    22    1
    38    22    23    1
    39    23    24    1
    40    15    11   ar
    41     6     1   ar
    42    31    26   ar
    43    37    34    1
    44     7    10    1
@<TRIPOS>MOLECULE
*****
 41 44 0 0 0
SMALL
GASTEIGER

@<TRIPOS>ATOM
      1 C         139.1659  140.1884  160.7543 C.ar    1  UNL1        0.0597
      2 C         139.0409  139.2245  161.8967 C.ar    1  UNL1        0.0423
      3 C         138.4381  139.6739  163.1946 C.ar    1  UNL1        0.1504
      4 C         137.9603  141.0873  163.3501 C.ar    1  UNL1        0.0744
      5 C         138.0853  142.0512  162.2076 C.ar    1  UNL1        0.1416
      6 C         138.6880  141.6017  160.9097 C.ar    1  UNL1        0.0416
      7 N         138.8808  139.3178  158.3230 N.am    1  UNL1       -0.2644
      8 C         139.7687  139.7390  159.4563 C.2     1  UNL1        0.2508
      9 O         141.2593  139.7107  159.2916 O.2     1  UNL1       -0.2698
     10 H         137.9024  139.3364  158.4311 H       1  UNL1        0.1566
     11 N         140.6539  137.5487  155.3579 N.ar    1  UNL1       -0.2357
     12 C         140.1685  138.8050  154.6974 C.ar    1  UNL1        0.0988
     13 C         139.4451  139.6207  155.7279 C.ar    1  UNL1        0.0565
     14 C         139.4836  138.8684  157.0250 C.ar    1  UNL1        0.1557
     15 N         140.2306  137.5879  156.7964 N.ar    1  UNL1       -0.1534
     16 C         141.4268  136.4468  154.6960 C.3     1  UNL1        0.2423
     17 P         142.8136  136.1176  155.1636 P.3     1  UNL1        0.3677
     18 O         144.2003  135.7885  155.6312 O.2     1  UNL1       -0.2557
     19 O         142.3055  134.8456  155.7751 O.3     1  UNL1       -0.2928
     20 C         142.7064  132.3847  156.5050 C.3     1  UNL1        0.0352
     21 C         143.2290  133.6767  155.9504 C.3     1  UNL1        0.1515
     22 O         143.3216  137.3897  154.5521 O.3     1  UNL1       -0.2928
     23 C         144.1774  138.3203  155.3593 C.3     1  UNL1        0.1515
     24 C         143.7417  139.7386  155.5799 C.3     1  UNL1        0.0352
     25 O         138.3131  138.7100  164.3372 O.3     1  UNL1       -0.4348
     26 C         138.7697  139.1098  165.7090 C.ar    1  UNL1        0.2484
     27 C         140.1349  139.7002  165.9027 C.ar    1  UNL1        0.0614
     28 C         140.5915  140.0999  167.2745 C.ar    1  UNL1        0.0304
     29 C         139.6827  139.9092  168.4526 C.ar    1  UNL1        0.1564
     30 N         138.3175  139.3187  168.2589 N.ar    1  UNL1       -0.1404
     31 N         137.8610  138.9190  166.8871 N.ar    1  UNL1       -0.1097
     32 C         140.1392  140.3089  169.8244 C.2     1  UNL1        0.2685
     33 O         139.6150  139.5859  171.0296 O.2     1  UNL1       -0.2682
     34 N         141.1200  141.4316  169.9909 N.am    1  UNL1       -0.2747
     35 C         141.8411  142.3575  169.0567 C.3     1  UNL1        0.0955
     36 C         142.5069  143.0193  170.2266 C.3     1  UNL1        0.0430
     37 C         141.7858  142.0935  171.1608 C.3     1  UNL1        0.0955
     38 O         137.6074  143.4645  162.3631 O.3     1  UNL1       -0.4791
     39 C         138.4421  144.4603  163.1125 C.3     1  UNL1        0.1661
     40 C         138.3543  144.5383  164.6079 C.3     1  UNL1        0.0472
     41 C         139.3647  145.3781  162.3665 C.3     1  UNL1        0.0472
@<TRIPOS>BOND
     1    20    21    1
     2    21    19    1
     3    19    17    1
     4    17    18    2
     5    17    16    1
     6    16    11    1
     7    11    12   ar
     8    12    13   ar
     9    13    14   ar
    10    14     7    1
    11     7     8   am
    12     8     9    2
    13     8     1    1
    14     1     2   ar
    15     2     3   ar
    16     3    25    1
    17    25    26    1
    18    26    27   ar
    19    27    28   ar
    20    28    29   ar
    21    29    32    1
    22    32    33    2
    23    32    34   am
    24    34    35    1
    25    35    36    1
    26    36    37    1
    27    29    30   ar
    28    30    31   ar
    29     3     4   ar
    30     4     5   ar
    31     5    38    1
    32    38    39    1
    33    39    40    1
    34    39    41    1
    35     5     6   ar
    36    14    15   ar
    37    17    22    1
    38    22    23    1
    39    23    24    1
    40    15    11   ar
    41     6     1   ar
    42    31    26   ar
    43    37    34    1
    44     7    10    1
@<TRIPOS>MOLECULE
*****
 41 44 0 0 0
SMALL
GASTEIGER

@<TRIPOS>ATOM
      1 C         141.2295  138.7167  158.2830 C.ar    1  UNL1        0.0597
      2 C         139.9980  138.4067  159.0814 C.ar    1  UNL1        0.0423
      3 C         139.4188  139.4423  159.9990 C.ar    1  UNL1        0.1504
      4 C         140.0710  140.7878  160.1183 C.ar    1  UNL1        0.0744
      5 C         141.3024  141.0977  159.3199 C.ar    1  UNL1        0.1416
      6 C         141.8817  140.0622  158.4023 C.ar    1  UNL1        0.0416
      7 N         140.9016  136.7472  156.6206 N.am    1  UNL1       -0.2644
      8 C         141.8088  137.6811  157.3654 C.2     1  UNL1        0.2508
      9 O         143.2953  137.5795  157.1926 O.2     1  UNL1       -0.2698
     10 H         139.9259  136.8139  156.7340 H       1  UNL1        0.1566
     11 N         142.5755  133.7063  154.8837 N.ar    1  UNL1       -0.2357
     12 C         142.1692  134.5300  153.6977 C.ar    1  UNL1        0.0988
     13 C         141.4926  135.7694  154.2040 C.ar    1  UNL1        0.0565
     14 C         141.4809  135.7116  155.7029 C.ar    1  UNL1        0.1557
     15 N         142.1501  134.4366  156.1230 N.ar    1  UNL1       -0.1534
     16 C         143.2829  132.3845  154.8384 C.3     1  UNL1        0.2423
     17 P         142.5800  131.1413  155.2973 P.3     1  UNL1        0.3677
     18 O         141.8770  129.8983  155.7561 O.2     1  UNL1       -0.2557
     19 O         143.3240  131.2007  156.5984 O.3     1  UNL1       -0.2928
     20 C         145.4193  132.0759  157.8607 C.3     1  UNL1        0.0352
     21 C         144.7853  131.5390  156.6119 C.3     1  UNL1        0.1515
     22 O         141.8359  131.0820  153.9962 O.3     1  UNL1       -0.2928
     23 C         140.3381  131.0003  153.9918 C.3     1  UNL1        0.1515
     24 C         139.5976  130.8752  152.6933 C.3     1  UNL1        0.0352
     25 O         138.1873  139.1323  160.7974 O.3     1  UNL1       -0.4348
     26 C         138.2464  139.1285  162.2962 C.ar    1  UNL1        0.2484
     27 C         138.7529  137.9184  163.0238 C.ar    1  UNL1        0.0614
     28 C         138.8120  137.9146  164.5226 C.ar    1  UNL1        0.0304
     29 C         138.3648  139.1209  165.2939 C.ar    1  UNL1        0.1564
     30 N         137.8584  140.3309  164.5664 N.ar    1  UNL1       -0.1404
     31 N         137.7992  140.3347  163.0675 N.ar    1  UNL1       -0.1097
     32 C         138.4239  139.1171  166.7927 C.2     1  UNL1        0.2685
     33 O         137.4986  138.2353  167.5776 O.2     1  UNL1       -0.2682
     34 N         139.4085  139.9952  167.5067 N.am    1  UNL1       -0.2747
     35 C         140.4584  140.9776  167.0792 C.3     1  UNL1        0.0955
     36 C         140.8009  141.2369  168.5164 C.3     1  UNL1        0.0430
     37 C         139.7511  140.2545  168.9438 C.3     1  UNL1        0.0955
     38 O         141.9546  142.4433  159.4392 O.3     1  UNL1       -0.4791
     39 C         141.2797  143.5381  160.2110 C.3     1  UNL1        0.1661
     40 C         140.2221  144.3758  159.5556 C.3     1  UNL1        0.0472
     41 C         141.6625  143.7952  161.6385 C.3     1  UNL1        0.0472
@<TRIPOS>BOND
     1    20    21    1
     2    21    19    1
     3    19    17    1
     4    17    18    2
     5    17    16    1
     6    16    11    1
     7    11    12   ar
     8    12    13   ar
     9    13    14   ar
    10    14     7    1
    11     7     8   am
    12     8     9    2
    13     8     1    1
    14     1     2   ar
    15     2     3   ar
    16     3    25    1
    17    25    26    1
    18    26    27   ar
    19    27    28   ar
    20    28    29   ar
    21    29    32    1
    22    32    33    2
    23    32    34   am
    24    34    35    1
    25    35    36    1
    26    36    37    1
    27    29    30   ar
    28    30    31   ar
    29     3     4   ar
    30     4     5   ar
    31     5    38    1
    32    38    39    1
    33    39    40    1
    34    39    41    1
    35     5     6   ar
    36    14    15   ar
    37    17    22    1
    38    22    23    1
    39    23    24    1
    40    15    11   ar
    41     6     1   ar
    42    31    26   ar
    43    37    34    1
    44     7    10    1
@<TRIPOS>MOLECULE
*****
 41 44 0 0 0
SMALL
GASTEIGER

@<TRIPOS>ATOM
      1 C         141.9373  138.4290  158.6296 C.ar    1  UNL1        0.0597
      2 C         140.5648  138.4228  159.2348 C.ar    1  UNL1        0.0423
      3 C         140.2711  139.2718  160.4360 C.ar    1  UNL1        0.1504
      4 C         141.3498  140.1268  161.0321 C.ar    1  UNL1        0.0744
      5 C         142.7222  140.1329  160.4269 C.ar    1  UNL1        0.1416
      6 C         143.0160  139.2840  159.2257 C.ar    1  UNL1        0.0416
      7 N         141.1611  136.7019  156.8507 N.am    1  UNL1       -0.2644
      8 C         142.2311  137.5800  157.4283 C.2     1  UNL1        0.2508
      9 O         143.5951  137.6093  156.8048 O.2     1  UNL1       -0.2698
     10 H         140.2659  136.6827  157.2599 H       1  UNL1        0.1566
     11 N         141.8394  133.9289  154.2208 N.ar    1  UNL1       -0.2357
     12 C         141.9747  135.1643  153.3808 C.ar    1  UNL1        0.0988
     13 C         141.7371  136.3535  154.2638 C.ar    1  UNL1        0.0565
     14 C         141.4549  135.8529  155.6494 C.ar    1  UNL1        0.1557
     15 N         141.5181  134.3545  155.6228 N.ar    1  UNL1       -0.1534
     16 C         141.9975  132.5161  153.7427 C.3     1  UNL1        0.2423
     17 P         142.0803  131.3935  154.7342 P.3     1  UNL1        0.3677
     18 O         142.1632  130.2709  155.7256 O.2     1  UNL1       -0.2557
     19 O         140.5842  131.2858  154.7373 O.3     1  UNL1       -0.2928
     20 C         139.8292  129.6262  152.8865 C.3     1  UNL1        0.0352
     21 C         139.9240  130.0001  154.3361 C.3     1  UNL1        0.1515
     22 O         143.5765  131.5012  154.7310 O.3     1  UNL1       -0.2928
     23 C         144.4160  130.2779  154.5098 C.3     1  UNL1        0.1515
     24 C         144.4895  129.6551  153.1472 C.3     1  UNL1        0.0352
     25 O         138.8985  139.2657  161.0412 O.3     1  UNL1       -0.4348
     26 C         138.7360  139.1952  162.5307 C.ar    1  UNL1        0.2484
     27 C         139.1163  137.9457  163.2684 C.ar    1  UNL1        0.0614
     28 C         138.9538  137.8753  164.7579 C.ar    1  UNL1        0.0304
     29 C         138.4109  139.0543  165.5097 C.ar    1  UNL1        0.1564
     30 N         138.0306  140.3038  164.7720 N.ar    1  UNL1       -0.1404
     31 N         138.1931  140.3742  163.2825 N.ar    1  UNL1       -0.1097
     32 C         138.2483  138.9839  166.9992 C.2     1  UNL1        0.2685
     33 O         137.2872  138.0035  167.6032 O.2     1  UNL1       -0.2682
     34 N         139.0470  139.8940  167.8847 N.am    1  UNL1       -0.2747
     35 C         140.0704  140.9665  167.6562 C.3     1  UNL1        0.0955
     36 C         140.1763  141.1810  169.1370 C.3     1  UNL1        0.0430
     37 C         139.1529  140.1084  169.3655 C.3     1  UNL1        0.0955
     38 O         143.8009  140.9880  161.0230 O.3     1  UNL1       -0.4791
     39 C         144.4605  140.5772  162.3060 C.3     1  UNL1        0.1661
     40 C         145.3543  141.5390  163.0313 C.3     1  UNL1        0.0472
     41 C         144.2262  139.2046  162.8639 C.3     1  UNL1        0.0472
@<TRIPOS>BOND
     1    20    21    1
     2    21    19    1
     3    19    17    1
     4    17    18    2
     5    17    16    1
     6    16    11    1
     7    11    12   ar
     8    12    13   ar
     9    13    14   ar
    10    14     7    1
    11     7     8   am
    12     8     9    2
    13     8     1    1
    14     1     2   ar
    15     2     3   ar
    16     3    25    1
    17    25    26    1
    18    26    27   ar
    19    27    28   ar
    20    28    29   ar
    21    29    32    1
    22    32    33    2
    23    32    34   am
    24    34    35    1
    25    35    36    1
    26    36    37    1
    27    29    30   ar
    28    30    31   ar
    29     3     4   ar
    30     4     5   ar
    31     5    38    1
    32    38    39    1
    33    39    40    1
    34    39    41    1
    35     5     6   ar
    36    14    15   ar
    37    17    22    1
    38    22    23    1
    39    23    24    1
    40    15    11   ar
    41     6     1   ar
    42    31    26   ar
    43    37    34    1
    44     7    10    1
@<TRIPOS>MOLECULE
*****
 41 44 0 0 0
SMALL
GASTEIGER

@<TRIPOS>ATOM
      1 C         141.8084  140.5169  160.2096 C.ar    1  UNL1        0.0597
      2 C         140.7602  139.9522  161.1219 C.ar    1  UNL1        0.0423
      3 C         139.9930  140.8610  162.0359 C.ar    1  UNL1        0.1504
      4 C         140.2741  142.3344  162.0377 C.ar    1  UNL1        0.0744
      5 C         141.3224  142.8991  161.1255 C.ar    1  UNL1        0.1416
      6 C         142.0896  141.9903  160.2114 C.ar    1  UNL1        0.0416
      7 N         141.8768  138.9244  158.1580 N.am    1  UNL1       -0.2644
      8 C         142.5757  139.6081  159.2955 C.2     1  UNL1        0.2508
      9 O         144.0418  139.3831  159.5190 O.2     1  UNL1       -0.2698
     10 H         140.9146  139.0721  158.0113 H       1  UNL1        0.1566
     11 N         143.5459  136.0207  156.1963 N.ar    1  UNL1       -0.2357
     12 C         144.1035  137.2138  155.4781 C.ar    1  UNL1        0.0988
     13 C         143.5460  138.4468  156.1256 C.ar    1  UNL1        0.0565
     14 C         142.6440  138.0156  157.2438 C.ar    1  UNL1        0.1557
     15 N         142.6440  136.5162  157.2875 N.ar    1  UNL1       -0.1534
     16 C         143.8389  134.5843  155.8789 C.3     1  UNL1        0.2423
     17 P         142.7114  133.6184  155.6645 P.3     1  UNL1        0.3677
     18 O         141.5840  132.6525  155.4503 O.2     1  UNL1       -0.2557
     19 O         142.5644  134.1031  154.2527 O.3     1  UNL1       -0.2928
     20 C         140.6471  135.8563  154.2492 C.3     1  UNL1        0.0352
     21 C         141.2274  134.5650  153.7536 C.3     1  UNL1        0.1515
     22 O         142.8584  133.1336  157.0765 O.3     1  UNL1       -0.2928
     23 C         144.2222  132.8550  157.6356 C.3     1  UNL1        0.1515
     24 C         144.7358  131.4469  157.6932 C.3     1  UNL1        0.0352
     25 O         138.9447  140.2964  162.9482 O.3     1  UNL1       -0.4348
     26 C         139.1785  140.2632  164.4295 C.ar    1  UNL1        0.2484
     27 C         138.3050  139.4173  165.3079 C.ar    1  UNL1        0.0614
     28 C         138.5389  139.3841  166.7892 C.ar    1  UNL1        0.0304
     29 C         139.6462  140.1968  167.3921 C.ar    1  UNL1        0.1564
     30 N         140.5196  141.0427  166.5137 N.ar    1  UNL1       -0.1404
     31 N         140.2857  141.0759  165.0324 N.ar    1  UNL1       -0.1097
     32 C         139.8800  140.1636  168.8734 C.2     1  UNL1        0.2685
     33 O         138.7507  139.8335  169.8038 O.2     1  UNL1       -0.2682
     34 N         141.2432  140.4607  169.4243 N.am    1  UNL1       -0.2747
     35 C         142.5728  140.8191  168.8294 C.3     1  UNL1        0.0955
     36 C         143.1711  140.8807  170.2035 C.3     1  UNL1        0.0430
     37 C         141.8415  140.5223  170.7985 C.3     1  UNL1        0.0955
     38 O         141.6035  144.3725  161.1273 O.3     1  UNL1       -0.4791
     39 C         140.5543  145.3368  160.6590 C.3     1  UNL1        0.1661
     40 C         140.2216  145.4327  159.1995 C.3     1  UNL1        0.0472
     41 C         139.8378  146.2053  161.6502 C.3     1  UNL1        0.0472
@<TRIPOS>BOND
     1    20    21    1
     2    21    19    1
     3    19    17    1
     4    17    18    2
     5    17    16    1
     6    16    11    1
     7    11    12   ar
     8    12    13   ar
     9    13    14   ar
    10    14     7    1
    11     7     8   am
    12     8     9    2
    13     8     1    1
    14     1     2   ar
    15     2     3   ar
    16     3    25    1
    17    25    26    1
    18    26    27   ar
    19    27    28   ar
    20    28    29   ar
    21    29    32    1
    22    32    33    2
    23    32    34   am
    24    34    35    1
    25    35    36    1
    26    36    37    1
    27    29    30   ar
    28    30    31   ar
    29     3     4   ar
    30     4     5   ar
    31     5    38    1
    32    38    39    1
    33    39    40    1
    34    39    41    1
    35     5     6   ar
    36    14    15   ar
    37    17    22    1
    38    22    23    1
    39    23    24    1
    40    15    11   ar
    41     6     1   ar
    42    31    26   ar
    43    37    34    1
    44     7    10    1
@<TRIPOS>MOLECULE
*****
 41 44 0 0 0
SMALL
GASTEIGER

@<TRIPOS>ATOM
      1 C         138.5088  142.3659  158.7630 C.ar    1  UNL1        0.0597
      2 C         137.6519  141.3549  158.0604 C.ar    1  UNL1        0.0423
      3 C         137.5612  141.3596  156.5631 C.ar    1  UNL1        0.1504
      4 C         138.3274  142.3753  155.7685 C.ar    1  UNL1        0.0744
      5 C         139.1843  143.3862  156.4711 C.ar    1  UNL1        0.1416
      6 C         139.2750  143.3815  157.9683 C.ar    1  UNL1        0.0416
      7 N         138.8602  143.6399  160.9998 N.am    1  UNL1       -0.2644
      8 C         138.5995  142.3612  160.2603 C.2     1  UNL1        0.2508
      9 O         138.4295  141.0778  161.0179 O.2     1  UNL1       -0.2698
     10 H         138.9717  144.4822  160.5025 H       1  UNL1        0.1566
     11 N         139.7262  143.2320  164.7614 N.ar    1  UNL1       -0.2357
     12 C         138.4548  144.0241  164.8409 C.ar    1  UNL1        0.0988
     13 C         137.9756  144.2732  163.4414 C.ar    1  UNL1        0.0565
     14 C         138.9509  143.6352  162.4971 C.ar    1  UNL1        0.1557
     15 N         140.0328  142.9917  163.3129 N.ar    1  UNL1       -0.1534
     16 C         140.5468  142.7627  165.9259 C.3     1  UNL1        0.2423
     17 P         140.9439  141.3200  166.0309 P.3     1  UNL1        0.3677
     18 O         141.3410  139.8774  166.1358 O.2     1  UNL1       -0.2557
     19 O         139.6004  140.9925  166.6120 O.3     1  UNL1       -0.2928
     20 C         139.5788  140.5084  169.1644 C.3     1  UNL1        0.0352
     21 C         139.4919  140.0200  167.7488 C.3     1  UNL1        0.1515
     22 O         142.2874  141.6477  165.4497 O.3     1  UNL1       -0.2928
     23 C         143.2739  142.4492  166.2463 C.3     1  UNL1        0.1515
     24 C         144.3009  143.2870  165.5438 C.3     1  UNL1        0.0352
     25 O         136.7043  140.3486  155.8605 O.3     1  UNL1       -0.4348
     26 C         135.2112  140.4115  155.9899 C.ar    1  UNL1        0.2484
     27 C         134.3941  141.0865  154.9283 C.ar    1  UNL1        0.0614
     28 C         132.9010  141.1494  155.0577 C.ar    1  UNL1        0.0304
     29 C         132.2250  140.5372  156.2486 C.ar    1  UNL1        0.1564
     30 N         133.0420  139.8622  157.3101 N.ar    1  UNL1       -0.1404
     31 N         134.5351  139.7994  157.1807 N.ar    1  UNL1       -0.1097
     32 C         130.7319  140.6000  156.3780 C.2     1  UNL1        0.2685
     33 O         129.9544  141.6228  155.6039 O.2     1  UNL1       -0.2682
     34 N         130.0163  139.6400  157.2816 N.am    1  UNL1       -0.2747
     35 C         130.4373  138.5180  158.1837 C.3     1  UNL1        0.0955
     36 C         129.0043  138.2824  158.5594 C.3     1  UNL1        0.0430
     37 C         128.5834  139.4044  157.6573 C.3     1  UNL1        0.0955
     38 O         139.9504  144.4019  155.6765 O.3     1  UNL1       -0.4791
     39 C         140.3790  145.6882  156.3181 C.3     1  UNL1        0.1661
     40 C         141.7520  145.8104  156.9095 C.3     1  UNL1        0.0472
     41 C         139.4344  146.8524  156.3682 C.3     1  UNL1        0.0472
@<TRIPOS>BOND
     1    20    21    1
     2    21    19    1
     3    19    17    1
     4    17    18    2
     5    17    16    1
     6    16    11    1
     7    11    12   ar
     8    12    13   ar
     9    13    14   ar
    10    14     7    1
    11     7     8   am
    12     8     9    2
    13     8     1    1
    14     1     2   ar
    15     2     3   ar
    16     3    25    1
    17    25    26    1
    18    26    27   ar
    19    27    28   ar
    20    28    29   ar
    21    29    32    1
    22    32    33    2
    23    32    34   am
    24    34    35    1
    25    35    36    1
    26    36    37    1
    27    29    30   ar
    28    30    31   ar
    29     3     4   ar
    30     4     5   ar
    31     5    38    1
    32    38    39    1
    33    39    40    1
    34    39    41    1
    35     5     6   ar
    36    14    15   ar
    37    17    22    1
    38    22    23    1
    39    23    24    1
    40    15    11   ar
    41     6     1   ar
    42    31    26   ar
    43    37    34    1
    44     7    10    1
@<TRIPOS>MOLECULE
*****
 41 44 0 0 0
SMALL
GASTEIGER

@<TRIPOS>ATOM
      1 C         144.2222  142.1918  158.8413 C.ar    1  UNL1        0.0597
      2 C         143.4903  141.2394  157.9428 C.ar    1  UNL1        0.0423
      3 C         144.0767  140.8597  156.6155 C.ar    1  UNL1        0.1504
      4 C         145.3951  141.4324  156.1866 C.ar    1  UNL1        0.0744
      5 C         146.1270  142.3848  157.0851 C.ar    1  UNL1        0.1416
      6 C         145.5405  142.7645  158.4124 C.ar    1  UNL1        0.0416
      7 N         143.7384  141.6292  161.3312 N.am    1  UNL1       -0.2644
      8 C         143.6357  142.5715  160.1687 C.2     1  UNL1        0.2508
      9 O         142.9465  143.8936  160.3335 O.2     1  UNL1       -0.2698
     10 H         144.1908  140.7615  161.2230 H       1  UNL1        0.1566
     11 N         141.7177  142.0716  164.6155 N.ar    1  UNL1       -0.2357
     12 C         142.7815  143.1151  164.7870 C.ar    1  UNL1        0.0988
     13 C         143.6680  143.0764  163.5775 C.ar    1  UNL1        0.0565
     14 C         143.1520  142.0090  162.6586 C.ar    1  UNL1        0.1557
     15 N         141.9466  141.3880  163.3001 N.ar    1  UNL1       -0.1534
     16 C         140.6180  141.7655  165.5885 C.3     1  UNL1        0.2423
     17 P         139.2243  141.5185  165.0919 P.3     1  UNL1        0.3677
     18 O         137.8306  141.2715  164.5953 O.2     1  UNL1       -0.2557
     19 O         139.1723  140.2395  165.8738 O.3     1  UNL1       -0.2928
     20 C         139.4749  137.8444  164.9136 C.3     1  UNL1        0.0352
     21 C         140.0645  139.0938  165.4979 C.3     1  UNL1        0.1515
     22 O         139.2763  142.7975  164.3099 O.3     1  UNL1       -0.2928
     23 C         138.2789  143.8843  164.5825 C.3     1  UNL1        0.1515
     24 C         138.6037  144.9714  165.5636 C.3     1  UNL1        0.0352
     25 O         143.3449  139.9073  155.7170 O.3     1  UNL1       -0.4348
     26 C         143.3909  138.4331  155.9901 C.ar    1  UNL1        0.2484
     27 C         142.3161  137.7892  156.8150 C.ar    1  UNL1        0.0614
     28 C         142.3622  136.3150  157.0882 C.ar    1  UNL1        0.0304
     29 C         143.4830  135.4847  156.5364 C.ar    1  UNL1        0.1564
     30 N         144.5577  136.1285  155.7115 N.ar    1  UNL1       -0.1404
     31 N         144.5116  137.6027  155.4384 N.ar    1  UNL1       -0.1097
     32 C         143.5291  134.0104  156.8095 C.2     1  UNL1        0.2685
     33 O         144.5084  133.4623  157.8046 O.2     1  UNL1       -0.2682
     34 N         142.5957  133.0844  156.0874 N.am    1  UNL1       -0.2747
     35 C         141.5171  133.2552  155.0590 C.3     1  UNL1        0.0955
     36 C         141.2758  131.7747  155.0662 C.3     1  UNL1        0.0430
     37 C         142.3544  131.6039  156.0946 C.3     1  UNL1        0.0955
     38 O         147.4453  142.9575  156.6562 O.3     1  UNL1       -0.4791
     39 C         147.8789  142.8515  155.2241 C.3     1  UNL1        0.1661
     40 C         148.8829  141.8132  154.8194 C.3     1  UNL1        0.0472
     41 C         147.3084  143.7838  154.1968 C.3     1  UNL1        0.0472
@<TRIPOS>BOND
     1    20    21    1
     2    21    19    1
     3    19    17    1
     4    17    18    2
     5    17    16    1
     6    16    11    1
     7    11    12   ar
     8    12    13   ar
     9    13    14   ar
    10    14     7    1
    11     7     8   am
    12     8     9    2
    13     8     1    1
    14     1     2   ar
    15     2     3   ar
    16     3    25    1
    17    25    26    1
    18    26    27   ar
    19    27    28   ar
    20    28    29   ar
    21    29    32    1
    22    32    33    2
    23    32    34   am
    24    34    35    1
    25    35    36    1
    26    36    37    1
    27    29    30   ar
    28    30    31   ar
    29     3     4   ar
    30     4     5   ar
    31     5    38    1
    32    38    39    1
    33    39    40    1
    34    39    41    1
    35     5     6   ar
    36    14    15   ar
    37    17    22    1
    38    22    23    1
    39    23    24    1
    40    15    11   ar
    41     6     1   ar
    42    31    26   ar
    43    37    34    1
    44     7    10    1
