@<TRIPOS>MOLECULE
*****
 30 33 0 0 0
SMALL
GASTEIGER

@<TRIPOS>ATOM
      1 N         140.6617  141.0775  165.7141 N.am    1  UNL1       -0.2433
      2 C         140.7095  140.8115  164.2387 C.2     1  UNL1        0.3150
      3 O         141.6763  141.5629  163.3722 O.2     1  UNL1       -0.2516
      4 N         139.7907  139.7942  163.6298 N.am    1  UNL1       -0.2342
      5 C         138.8240  139.0428  164.4963 C.3     1  UNL1        0.1292
      6 C         138.7761  139.3087  165.9718 C.ar    1  UNL1        0.0308
      7 C         137.8095  138.5574  166.8383 C.ar    1  UNL1        0.0989
      8 N         137.7616  138.8233  168.3138 N.ar    1  UNL1       -0.2295
      9 C         138.6804  139.8406  168.9227 C.ar    1  UNL1        0.1317
     10 C         139.6471  140.5920  168.0562 C.ar    1  UNL1        0.0322
     11 C         139.6950  140.3261  166.5807 C.ar    1  UNL1        0.0536
     12 C         140.4241  141.5288  168.9329 C.3     1  UNL1        0.1157
     13 C         139.9376  141.3564  170.3413 C.2     1  UNL1        0.2317
     14 O         140.4405  142.0973  171.5447 O.2     1  UNL1       -0.2744
     15 N         138.8600  140.3130  170.3350 N.am    1  UNL1       -0.2693
     16 H         138.3585  139.9943  171.1200 H       1  UNL1        0.1563
     17 C         139.8386  139.5283  162.1543 C.ar    1  UNL1        0.1167
     18 C         141.0380  138.8589  161.5514 C.ar    1  UNL1        0.1898
     19 F         142.1894  138.4555  162.4239 F       1  UNL1       -0.1996
     20 C         141.0857  138.5931  160.0759 C.ar    1  UNL1        0.1704
     21 C         139.9343  138.9965  159.2033 C.ar    1  UNL1        0.0785
     22 C         138.7349  139.6659  159.8064 C.ar    1  UNL1        0.1704
     23 C         138.6871  139.9317  161.2818 C.ar    1  UNL1        0.1898
     24 F         137.4878  140.6011  161.8847 F       1  UNL1       -0.1996
     25 O         142.2851  137.9237  159.4729 O.3     1  UNL1       -0.4690
     26 C         142.4302  137.8459  157.9820 C.3     1  UNL1        0.2526
     27 O         137.5834  140.0693  158.9338 O.3     1  UNL1       -0.4690
     28 C         137.7833  141.0894  157.8525 C.3     1  UNL1        0.2526
     29 C         143.0444  141.7971  166.4591 C.3     1  UNL1        0.0237
     30 C         141.5806  142.0948  166.3230 C.3     1  UNL1        0.0998
@<TRIPOS>BOND
     1    29    30    1
     2    30     1    1
     3     1     2   am
     4     2     3    2
     5     2     4   am
     6     4    17    1
     7    17    18   ar
     8    18    19    1
     9    18    20   ar
    10    20    25    1
    11    25    26    1
    12    20    21   ar
    13    21    22   ar
    14    22    27    1
    15    27    28    1
    16    22    23   ar
    17    23    24    1
    18     4     5    1
    19     5     6    1
    20     6     7   ar
    21     7     8   ar
    22     8     9   ar
    23     9    10   ar
    24    10    11   ar
    25    10    12    1
    26    12    13    1
    27    13    14    2
    28    13    15   am
    29    11     1    1
    30    23    17   ar
    31    11     6   ar
    32    15     9    1
    33    15    16    1
@<TRIPOS>MOLECULE
*****
 30 33 0 0 0
SMALL
GASTEIGER

@<TRIPOS>ATOM
      1 N         140.6746  141.0936  165.6504 N.am    1  UNL1       -0.2433
      2 C         140.7418  140.8194  164.1773 C.2     1  UNL1        0.3150
      3 O         141.7124  141.5737  163.3176 O.2     1  UNL1       -0.2516
      4 N         139.8386  139.7909  163.5638 N.am    1  UNL1       -0.2342
      5 C         138.8680  139.0366  164.4234 C.3     1  UNL1        0.1292
      6 C         138.8007  139.3109  165.8967 C.ar    1  UNL1        0.0308
      7 C         137.8302  138.5566  166.7564 C.ar    1  UNL1        0.0989
      8 N         137.7628  138.8308  168.2295 N.ar    1  UNL1       -0.2295
      9 C         138.6661  139.8593  168.8430 C.ar    1  UNL1        0.1317
     10 C         139.6366  140.6136  167.9834 C.ar    1  UNL1        0.0322
     11 C         139.7040  140.3394  166.5102 C.ar    1  UNL1        0.0536
     12 C         140.3956  141.5620  168.8634 C.3     1  UNL1        0.1157
     13 C         139.8940  141.3938  170.2671 C.2     1  UNL1        0.2317
     14 O         140.3767  142.1459  171.4718 O.2     1  UNL1       -0.2744
     15 N         138.8251  140.3415  170.2545 N.am    1  UNL1       -0.2693
     16 H         138.3172  140.0233  171.0354 H       1  UNL1        0.1563
     17 C         139.9059  139.5167  162.0906 C.ar    1  UNL1        0.1167
     18 C         138.7668  139.9168  161.2004 C.ar    1  UNL1        0.1898
     19 F         137.5604  140.5910  161.7834 F       1  UNL1       -0.1996
     20 C         138.8343  139.6425  159.7272 C.ar    1  UNL1        0.1704
     21 C         140.0407  138.9683  159.1442 C.ar    1  UNL1        0.0785
     22 C         141.1798  138.5683  160.0345 C.ar    1  UNL1        0.1704
     23 C         141.1124  138.8425  161.5076 C.ar    1  UNL1        0.1898
     24 F         142.2515  138.4424  162.3978 F       1  UNL1       -0.1996
     25 O         137.6952  140.0426  158.8370 O.3     1  UNL1       -0.4690
     26 C         137.8395  141.2185  157.9170 C.3     1  UNL1        0.2526
     27 O         142.3862  137.8940  159.4515 O.3     1  UNL1       -0.4690
     28 C         142.5921  137.8785  157.9658 C.3     1  UNL1        0.2526
     29 C         143.0383  141.8285  166.4396 C.3     1  UNL1        0.0237
     30 C         141.5778  142.1221  166.2639 C.3     1  UNL1        0.0998
@<TRIPOS>BOND
     1    29    30    1
     2    30     1    1
     3     1     2   am
     4     2     3    2
     5     2     4   am
     6     4    17    1
     7    17    18   ar
     8    18    19    1
     9    18    20   ar
    10    20    25    1
    11    25    26    1
    12    20    21   ar
    13    21    22   ar
    14    22    27    1
    15    27    28    1
    16    22    23   ar
    17    23    24    1
    18     4     5    1
    19     5     6    1
    20     6     7   ar
    21     7     8   ar
    22     8     9   ar
    23     9    10   ar
    24    10    11   ar
    25    10    12    1
    26    12    13    1
    27    13    14    2
    28    13    15   am
    29    11     1    1
    30    23    17   ar
    31    11     6   ar
    32    15     9    1
    33    15    16    1
@<TRIPOS>MOLECULE
*****
 30 33 0 0 0
SMALL
GASTEIGER

@<TRIPOS>ATOM
      1 N         140.7623  141.6069  165.9625 N.am    1  UNL1       -0.2433
      2 C         140.7812  141.6375  164.4630 C.2     1  UNL1        0.3150
      3 O         141.7358  142.5437  163.7435 O.2     1  UNL1       -0.2516
      4 N         139.8457  140.7621  163.6830 N.am    1  UNL1       -0.2342
      5 C         138.8912  139.8560  164.4025 C.3     1  UNL1        0.1292
      6 C         138.8721  139.8253  165.9022 C.ar    1  UNL1        0.0308
      7 C         137.9176  138.9192  166.6217 C.ar    1  UNL1        0.0989
      8 N         137.8986  138.8885  168.1213 N.ar    1  UNL1       -0.2295
      9 C         138.8341  139.7639  168.9013 C.ar    1  UNL1        0.1317
     10 C         139.7886  140.6701  168.1817 C.ar    1  UNL1        0.0322
     11 C         139.8077  140.7008  166.6822 C.ar    1  UNL1        0.0536
     12 C         140.5869  141.4139  169.2110 C.3     1  UNL1        0.1157
     13 C         140.1256  140.9675  170.5667 C.2     1  UNL1        0.2317
     14 O         140.6547  141.4552  171.8829 O.2     1  UNL1       -0.2744
     15 N         139.0423  139.9478  170.3753 N.am    1  UNL1       -0.2693
     16 H         138.5538  139.4811  171.0914 H       1  UNL1        0.1563
     17 C         139.8648  140.7928  162.1834 C.ar    1  UNL1        0.1167
     18 C         140.3646  139.6053  161.4153 C.ar    1  UNL1        0.1898
     19 F         140.8454  138.3872  162.1466 F       1  UNL1       -0.1996
     20 C         140.3836  139.6362  159.9156 C.ar    1  UNL1        0.1704
     21 C         139.9028  140.8543  159.1843 C.ar    1  UNL1        0.0785
     22 C         139.4030  142.0418  159.9526 C.ar    1  UNL1        0.1704
     23 C         139.3840  142.0110  161.4521 C.ar    1  UNL1        0.1898
     24 F         138.8842  143.1985  162.2203 F       1  UNL1       -0.1996
     25 O         140.8834  138.4487  159.1474 O.3     1  UNL1       -0.4690
     26 C         142.3430  138.3245  158.8246 C.3     1  UNL1        0.2526
     27 O         138.9223  143.2600  159.2212 O.3     1  UNL1       -0.4690
     28 C         139.9059  144.2926  158.7565 C.3     1  UNL1        0.2526
     29 C         143.1664  142.1780  166.7650 C.3     1  UNL1        0.0237
     30 C         141.6978  142.4823  166.7425 C.3     1  UNL1        0.0998
@<TRIPOS>BOND
     1    29    30    1
     2    30     1    1
     3     1     2   am
     4     2     3    2
     5     2     4   am
     6     4    17    1
     7    17    18   ar
     8    18    19    1
     9    18    20   ar
    10    20    25    1
    11    25    26    1
    12    20    21   ar
    13    21    22   ar
    14    22    27    1
    15    27    28    1
    16    22    23   ar
    17    23    24    1
    18     4     5    1
    19     5     6    1
    20     6     7   ar
    21     7     8   ar
    22     8     9   ar
    23     9    10   ar
    24    10    11   ar
    25    10    12    1
    26    12    13    1
    27    13    14    2
    28    13    15   am
    29    11     1    1
    30    23    17   ar
    31    11     6   ar
    32    15     9    1
    33    15    16    1
@<TRIPOS>MOLECULE
*****
 30 33 0 0 0
SMALL
GASTEIGER

@<TRIPOS>ATOM
      1 N         142.4388  143.4080  163.9740 N.am    1  UNL1       -0.2433
      2 C         142.6097  142.8129  165.3402 C.2     1  UNL1        0.3150
      3 O         143.9573  142.8222  165.9990 O.2     1  UNL1       -0.2516
      4 N         141.4332  142.2086  166.0476 N.am    1  UNL1       -0.2342
      5 C         140.0856  142.1993  165.3888 C.3     1  UNL1        0.1292
      6 C         139.9146  142.7944  164.0225 C.ar    1  UNL1        0.0308
      7 C         138.5671  142.7852  163.3637 C.ar    1  UNL1        0.0989
      8 N         138.3961  143.3802  161.9975 N.ar    1  UNL1       -0.2295
      9 C         139.5727  143.9846  161.2901 C.ar    1  UNL1        0.1317
     10 C         140.9202  143.9939  161.9489 C.ar    1  UNL1        0.0322
     11 C         141.0912  143.3988  163.3151 C.ar    1  UNL1        0.0536
     12 C         141.8888  144.6554  161.0139 C.3     1  UNL1        0.1157
     13 C         141.1399  145.0549  159.7772 C.2     1  UNL1        0.2317
     14 O         141.7204  145.7474  158.5799 O.2     1  UNL1       -0.2744
     15 N         139.7084  144.6404  159.9479 N.am    1  UNL1       -0.2693
     16 H         138.9850  144.7751  159.2938 H       1  UNL1        0.1563
     17 C         141.6042  141.6135  167.4139 C.ar    1  UNL1        0.1167
     18 C         142.3111  140.3006  167.5770 C.ar    1  UNL1        0.1898
     19 F         142.8471  139.5828  166.3738 F       1  UNL1       -0.1996
     20 C         142.4821  139.7056  168.9433 C.ar    1  UNL1        0.1704
     21 C         141.9462  140.4233  170.1464 C.ar    1  UNL1        0.0785
     22 C         141.2392  141.7362  169.9832 C.ar    1  UNL1        0.1704
     23 C         141.0682  142.3312  168.6170 C.ar    1  UNL1        0.1898
     24 F         140.3613  143.6441  168.4539 F       1  UNL1       -0.1996
     25 O         143.1891  138.3927  169.1064 O.3     1  UNL1       -0.4690
     26 C         143.1952  137.7047  170.4393 C.3     1  UNL1        0.2526
     27 O         140.7033  142.4540  171.1864 O.3     1  UNL1       -0.4690
     28 C         139.3208  143.0353  171.1588 C.3     1  UNL1        0.2526
     29 C         144.6472  143.1257  162.6349 C.3     1  UNL1        0.0237
     30 C         143.6153  144.0124  163.2666 C.3     1  UNL1        0.0998
@<TRIPOS>BOND
     1    29    30    1
     2    30     1    1
     3     1     2   am
     4     2     3    2
     5     2     4   am
     6     4    17    1
     7    17    18   ar
     8    18    19    1
     9    18    20   ar
    10    20    25    1
    11    25    26    1
    12    20    21   ar
    13    21    22   ar
    14    22    27    1
    15    27    28    1
    16    22    23   ar
    17    23    24    1
    18     4     5    1
    19     5     6    1
    20     6     7   ar
    21     7     8   ar
    22     8     9   ar
    23     9    10   ar
    24    10    11   ar
    25    10    12    1
    26    12    13    1
    27    13    14    2
    28    13    15   am
    29    11     1    1
    30    23    17   ar
    31    11     6   ar
    32    15     9    1
    33    15    16    1
@<TRIPOS>MOLECULE
*****
 30 33 0 0 0
SMALL
GASTEIGER

@<TRIPOS>ATOM
      1 N         140.5540  141.5520  165.1389 N.am    1  UNL1       -0.2433
      2 C         140.4142  141.5031  163.6463 C.2     1  UNL1        0.3150
      3 O         141.2511  142.4018  162.7849 O.2     1  UNL1       -0.2516
      4 N         139.4377  140.5556  163.0150 N.am    1  UNL1       -0.2342
      5 C         138.6008  139.6568  163.8763 C.3     1  UNL1        0.1292
      6 C         138.7405  139.7057  165.3691 C.ar    1  UNL1        0.0308
      7 C         137.9037  138.8070  166.2304 C.ar    1  UNL1        0.0989
      8 N         138.0434  138.8558  167.7231 N.ar    1  UNL1       -0.2295
      9 C         139.0199  139.8034  168.3544 C.ar    1  UNL1        0.1317
     10 C         139.8568  140.7021  167.4930 C.ar    1  UNL1        0.0322
     11 C         139.7171  140.6533  166.0004 C.ar    1  UNL1        0.0536
     12 C         140.7283  141.5269  168.3931 C.3     1  UNL1        0.1157
     13 C         140.4300  141.1380  169.8107 C.2     1  UNL1        0.2317
     14 O         141.0744  141.7132  171.0370 O.2     1  UNL1       -0.2744
     15 N         139.3742  140.0728  169.7869 N.am    1  UNL1       -0.2693
     16 H         138.9825  139.6285  170.5733 H       1  UNL1        0.1563
     17 C         139.2981  140.5068  161.5223 C.ar    1  UNL1        0.1167
     18 C         138.6812  141.6605  160.7886 C.ar    1  UNL1        0.1898
     19 F         138.2041  142.8631  161.5475 F       1  UNL1       -0.1996
     20 C         138.5416  141.6116  159.2958 C.ar    1  UNL1        0.1704
     21 C         139.0188  140.4090  158.5369 C.ar    1  UNL1        0.0785
     22 C         139.6356  139.2552  159.2707 C.ar    1  UNL1        0.1704
     23 C         139.7752  139.3042  160.7633 C.ar    1  UNL1        0.1898
     24 F         140.3921  138.1504  161.4970 F       1  UNL1       -0.1996
     25 O         137.9248  142.7654  158.5621 O.3     1  UNL1       -0.4690
     26 C         137.4474  142.5880  157.1512 C.3     1  UNL1        0.2526
     27 O         140.1128  138.0526  158.5117 O.3     1  UNL1       -0.4690
     28 C         139.8168  137.9242  157.0468 C.3     1  UNL1        0.2526
     29 C         143.0011  142.2097  165.7125 C.3     1  UNL1        0.0237
     30 C         141.5305  142.4995  165.7702 C.3     1  UNL1        0.0998
@<TRIPOS>BOND
     1    29    30    1
     2    30     1    1
     3     1     2   am
     4     2     3    2
     5     2     4   am
     6     4    17    1
     7    17    18   ar
     8    18    19    1
     9    18    20   ar
    10    20    25    1
    11    25    26    1
    12    20    21   ar
    13    21    22   ar
    14    22    27    1
    15    27    28    1
    16    22    23   ar
    17    23    24    1
    18     4     5    1
    19     5     6    1
    20     6     7   ar
    21     7     8   ar
    22     8     9   ar
    23     9    10   ar
    24    10    11   ar
    25    10    12    1
    26    12    13    1
    27    13    14    2
    28    13    15   am
    29    11     1    1
    30    23    17   ar
    31    11     6   ar
    32    15     9    1
    33    15    16    1
@<TRIPOS>MOLECULE
*****
 30 33 0 0 0
SMALL
GASTEIGER

@<TRIPOS>ATOM
      1 N         140.2899  140.8389  165.4728 N.am    1  UNL1       -0.2433
      2 C         140.6193  141.1760  164.0488 C.2     1  UNL1        0.3150
      3 O         139.7012  140.7437  162.9441 O.2     1  UNL1       -0.2516
      4 N         141.8668  141.9453  163.7294 N.am    1  UNL1       -0.2342
      5 C         142.7849  142.3775  164.8340 C.3     1  UNL1        0.1292
      6 C         142.4555  142.0404  166.2582 C.ar    1  UNL1        0.0308
      7 C         143.3735  142.4726  167.3628 C.ar    1  UNL1        0.0989
      8 N         143.0442  142.1356  168.7868 N.ar    1  UNL1       -0.2295
      9 C         141.7968  141.3663  169.1062 C.ar    1  UNL1        0.1317
     10 C         140.8786  140.9340  168.0016 C.ar    1  UNL1        0.0322
     11 C         141.2080  141.2711  166.5775 C.ar    1  UNL1        0.0536
     12 C         139.7291  140.1930  168.6175 C.3     1  UNL1        0.1157
     13 C         139.9368  140.1672  170.1028 C.2     1  UNL1        0.2317
     14 O         139.0264  139.5285  171.1094 O.2     1  UNL1       -0.2744
     15 N         141.2146  140.8924  170.4049 N.am    1  UNL1       -0.2693
     16 H         141.6031  141.0326  171.2986 H       1  UNL1        0.1563
     17 C         142.1961  142.2823  162.3053 C.ar    1  UNL1        0.1167
     18 C         141.7846  143.6066  161.7336 C.ar    1  UNL1        0.1898
     19 F         141.0437  144.5939  162.5859 F       1  UNL1       -0.1996
     20 C         142.1140  143.9436  160.3095 C.ar    1  UNL1        0.1704
     21 C         142.8548  142.9563  159.4572 C.ar    1  UNL1        0.0785
     22 C         143.2663  141.6320  160.0290 C.ar    1  UNL1        0.1704
     23 C         142.9370  141.2950  161.4530 C.ar    1  UNL1        0.1898
     24 F         143.3485  139.9707  162.0248 F       1  UNL1       -0.1996
     25 O         141.7024  145.2679  159.7377 O.3     1  UNL1       -0.4690
     26 C         140.3396  145.4329  159.1333 C.3     1  UNL1        0.2526
     27 O         144.0072  140.6447  159.1767 O.3     1  UNL1       -0.4690
     28 C         143.2491  139.7015  158.2904 C.3     1  UNL1        0.2526
     29 C         138.9527  138.6114  165.4520 C.3     1  UNL1        0.0237
     30 C         139.0424  140.0696  165.7922 C.3     1  UNL1        0.0998
@<TRIPOS>BOND
     1    29    30    1
     2    30     1    1
     3     1     2   am
     4     2     3    2
     5     2     4   am
     6     4    17    1
     7    17    18   ar
     8    18    19    1
     9    18    20   ar
    10    20    25    1
    11    25    26    1
    12    20    21   ar
    13    21    22   ar
    14    22    27    1
    15    27    28    1
    16    22    23   ar
    17    23    24    1
    18     4     5    1
    19     5     6    1
    20     6     7   ar
    21     7     8   ar
    22     8     9   ar
    23     9    10   ar
    24    10    11   ar
    25    10    12    1
    26    12    13    1
    27    13    14    2
    28    13    15   am
    29    11     1    1
    30    23    17   ar
    31    11     6   ar
    32    15     9    1
    33    15    16    1
@<TRIPOS>MOLECULE
*****
 30 33 0 0 0
SMALL
GASTEIGER

@<TRIPOS>ATOM
      1 N         140.2500  140.7208  165.4175 N.am    1  UNL1       -0.2433
      2 C         140.6113  141.0411  163.9974 C.2     1  UNL1        0.3150
      3 O         139.7216  140.5900  162.8771 O.2     1  UNL1       -0.2516
      4 N         141.8623  141.8124  163.6974 N.am    1  UNL1       -0.2342
      5 C         142.7521  142.2635  164.8176 C.3     1  UNL1        0.1292
      6 C         142.3908  141.9432  166.2379 C.ar    1  UNL1        0.0308
      7 C         143.2804  142.3942  167.3581 C.ar    1  UNL1        0.0989
      8 N         142.9191  142.0740  168.7782 N.ar    1  UNL1       -0.2295
      9 C         141.6681  141.3026  169.0782 C.ar    1  UNL1        0.1317
     10 C         140.7784  140.8516  167.9580 C.ar    1  UNL1        0.0322
     11 C         141.1397  141.1718  166.5378 C.ar    1  UNL1        0.0536
     12 C         139.6181  140.1128  168.5562 C.3     1  UNL1        0.1157
     13 C         139.7908  140.1073  170.0463 C.2     1  UNL1        0.2317
     14 O         138.8599  139.4770  171.0394 O.2     1  UNL1       -0.2744
     15 N         141.0577  140.8426  170.3688 N.am    1  UNL1       -0.2693
     16 H         141.4243  140.9964  171.2695 H       1  UNL1        0.1563
     17 C         142.2236  142.1327  162.2773 C.ar    1  UNL1        0.1167
     18 C         142.9448  141.1184  161.4398 C.ar    1  UNL1        0.1898
     19 F         143.3047  139.7840  162.0226 F       1  UNL1       -0.1996
     20 C         143.3060  141.4388  160.0196 C.ar    1  UNL1        0.1704
     21 C         142.9461  142.7733  159.4369 C.ar    1  UNL1        0.0785
     22 C         142.2249  143.7875  160.2744 C.ar    1  UNL1        0.1704
     23 C         141.8637  143.4671  161.6945 C.ar    1  UNL1        0.1898
     24 F         141.1425  144.4814  162.5319 F       1  UNL1       -0.1996
     25 O         144.0272  140.4246  159.1822 O.3     1  UNL1       -0.4690
     26 C         143.5694  140.1467  157.7811 C.3     1  UNL1        0.2526
     27 O         141.8650  145.1220  159.6916 O.3     1  UNL1       -0.4690
     28 C         140.4376  145.4305  159.3493 C.3     1  UNL1        0.2526
     29 C         138.9364  138.4792  165.4264 C.3     1  UNL1        0.0237
     30 C         138.9989  139.9494  165.7174 C.3     1  UNL1        0.0998
@<TRIPOS>BOND
     1    29    30    1
     2    30     1    1
     3     1     2   am
     4     2     3    2
     5     2     4   am
     6     4    17    1
     7    17    18   ar
     8    18    19    1
     9    18    20   ar
    10    20    25    1
    11    25    26    1
    12    20    21   ar
    13    21    22   ar
    14    22    27    1
    15    27    28    1
    16    22    23   ar
    17    23    24    1
    18     4     5    1
    19     5     6    1
    20     6     7   ar
    21     7     8   ar
    22     8     9   ar
    23     9    10   ar
    24    10    11   ar
    25    10    12    1
    26    12    13    1
    27    13    14    2
    28    13    15   am
    29    11     1    1
    30    23    17   ar
    31    11     6   ar
    32    15     9    1
    33    15    16    1
@<TRIPOS>MOLECULE
*****
 30 33 0 0 0
SMALL
GASTEIGER

@<TRIPOS>ATOM
      1 N         140.7613  141.0291  164.9865 N.am    1  UNL1       -0.2433
      2 C         141.1870  140.9465  163.5506 C.2     1  UNL1        0.3150
      3 O         140.4205  141.6900  162.4972 O.2     1  UNL1       -0.2516
      4 N         142.3793  140.1205  163.1681 N.am    1  UNL1       -0.2342
      5 C         143.1458  139.3771  164.2215 C.3     1  UNL1        0.1292
      6 C         142.7200  139.4596  165.6575 C.ar    1  UNL1        0.0308
      7 C         143.4865  138.7162  166.7109 C.ar    1  UNL1        0.0989
      8 N         143.0607  138.7987  168.1469 N.ar    1  UNL1       -0.2295
      9 C         141.8685  139.6247  168.5294 C.ar    1  UNL1        0.1317
     10 C         141.1020  140.3682  167.4759 C.ar    1  UNL1        0.0322
     11 C         141.5277  140.2857  166.0400 C.ar    1  UNL1        0.0536
     12 C         139.9768  141.0968  168.1489 C.3     1  UNL1        0.1157
     13 C         140.0478  140.8037  169.6182 C.2     1  UNL1        0.2317
     14 O         139.1137  141.3282  170.6681 O.2     1  UNL1       -0.2744
     15 N         141.2170  139.8938  169.8534 N.am    1  UNL1       -0.2693
     16 H         141.5060  139.5362  170.7239 H       1  UNL1        0.1563
     17 C         142.8050  140.0380  161.7321 C.ar    1  UNL1        0.1167
     18 C         143.4525  141.2195  161.0728 C.ar    1  UNL1        0.1898
     19 F         143.6744  142.4835  161.8493 F       1  UNL1       -0.1996
     20 C         143.8782  141.1369  159.6367 C.ar    1  UNL1        0.1704
     21 C         143.6564  139.8728  158.8602 C.ar    1  UNL1        0.0785
     22 C         143.0088  138.6914  159.5197 C.ar    1  UNL1        0.1704
     23 C         142.5831  138.7740  160.9556 C.ar    1  UNL1        0.1898
     24 F         141.9356  137.5925  161.6150 F       1  UNL1       -0.1996
     25 O         144.5258  142.3183  158.9774 O.3     1  UNL1       -0.4690
     26 C         144.5231  142.4375  157.4821 C.3     1  UNL1        0.2526
     27 O         142.7870  137.4274  158.7431 O.3     1  UNL1       -0.4690
     28 C         142.5944  137.4844  157.2566 C.3     1  UNL1        0.2526
     29 C         139.6727  143.3512  165.4026 C.3     1  UNL1        0.0237
     30 C         139.5691  141.8551  165.3690 C.3     1  UNL1        0.0998
@<TRIPOS>BOND
     1    29    30    1
     2    30     1    1
     3     1     2   am
     4     2     3    2
     5     2     4   am
     6     4    17    1
     7    17    18   ar
     8    18    19    1
     9    18    20   ar
    10    20    25    1
    11    25    26    1
    12    20    21   ar
    13    21    22   ar
    14    22    27    1
    15    27    28    1
    16    22    23   ar
    17    23    24    1
    18     4     5    1
    19     5     6    1
    20     6     7   ar
    21     7     8   ar
    22     8     9   ar
    23     9    10   ar
    24    10    11   ar
    25    10    12    1
    26    12    13    1
    27    13    14    2
    28    13    15   am
    29    11     1    1
    30    23    17   ar
    31    11     6   ar
    32    15     9    1
    33    15    16    1
@<TRIPOS>MOLECULE
*****
 30 33 0 0 0
SMALL
GASTEIGER

@<TRIPOS>ATOM
      1 N         139.2828  139.3040  164.8950 N.am    1  UNL1       -0.2433
      2 C         139.3158  139.0015  163.4262 C.2     1  UNL1        0.3150
      3 O         138.3414  138.0234  162.8399 O.2     1  UNL1       -0.2516
      4 N         140.3232  139.6772  162.5438 N.am    1  UNL1       -0.2342
      5 C         141.2976  140.6553  163.1301 C.3     1  UNL1        0.1292
      6 C         141.2646  140.9578  164.5990 C.ar    1  UNL1        0.0308
      7 C         142.2389  141.9359  165.1853 C.ar    1  UNL1        0.0989
      8 N         142.2060  142.2384  166.6541 N.ar    1  UNL1       -0.2295
      9 C         141.1986  141.5628  167.5366 C.ar    1  UNL1        0.1317
     10 C         140.2242  140.5846  166.9502 C.ar    1  UNL1        0.0322
     11 C         140.2572  140.2821  165.4814 C.ar    1  UNL1        0.0536
     12 C         139.3519  140.0774  168.0601 C.3     1  UNL1        0.1157
     13 C         139.7871  140.7421  169.3324 C.2     1  UNL1        0.2317
     14 O         139.1865  140.5267  170.6899 O.2     1  UNL1       -0.2744
     15 N         140.9285  141.6601  169.0088 N.am    1  UNL1       -0.2693
     16 H         141.4149  142.2270  169.6502 H       1  UNL1        0.1563
     17 C         140.3561  139.3747  161.0750 C.ar    1  UNL1        0.1167
     18 C         141.5169  138.6268  160.4891 C.ar    1  UNL1        0.1898
     19 F         142.6447  138.1814  161.3720 F       1  UNL1       -0.1996
     20 C         141.5497  138.3243  159.0202 C.ar    1  UNL1        0.1704
     21 C         140.4219  138.7697  158.1373 C.ar    1  UNL1        0.0785
     22 C         139.2611  139.5177  158.7232 C.ar    1  UNL1        0.1704
     23 C         139.2283  139.8201  160.1920 C.ar    1  UNL1        0.1898
     24 F         138.0675  140.5680  160.7779 F       1  UNL1       -0.1996
     25 O         142.7105  137.5764  158.4343 O.3     1  UNL1       -0.4690
     26 C         142.6188  137.0182  157.0451 C.3     1  UNL1        0.2526
     27 O         138.1333  139.9631  157.8403 O.3     1  UNL1       -0.4690
     28 C         137.9693  141.4168  157.5091 C.3     1  UNL1        0.2526
     29 C         138.3548  137.1486  166.0099 C.3     1  UNL1        0.0237
     30 C         138.2754  138.6283  165.7775 C.3     1  UNL1        0.0998
@<TRIPOS>BOND
     1    29    30    1
     2    30     1    1
     3     1     2   am
     4     2     3    2
     5     2     4   am
     6     4    17    1
     7    17    18   ar
     8    18    19    1
     9    18    20   ar
    10    20    25    1
    11    25    26    1
    12    20    21   ar
    13    21    22   ar
    14    22    27    1
    15    27    28    1
    16    22    23   ar
    17    23    24    1
    18     4     5    1
    19     5     6    1
    20     6     7   ar
    21     7     8   ar
    22     8     9   ar
    23     9    10   ar
    24    10    11   ar
    25    10    12    1
    26    12    13    1
    27    13    14    2
    28    13    15   am
    29    11     1    1
    30    23    17   ar
    31    11     6   ar
    32    15     9    1
    33    15    16    1
