@<TRIPOS>MOLECULE
*****
 34 39 0 0 0
SMALL
GASTEIGER

@<TRIPOS>ATOM
      1 C         141.3310  144.4613  162.6815 C.ar    1  UNL1        0.1669
      2 N         140.1815  145.4175  162.8011 N.ar    1  UNL1       -0.1282
      3 N         139.7119  145.7533  161.4166 N.ar    1  UNL1       -0.1221
      4 C         140.5713  145.0047  160.4413 C.ar    1  UNL1        0.1932
      5 N         141.5720  144.2061  161.2231 N.ar    1  UNL1       -0.2884
      6 C         142.6281  143.3099  160.6475 C.3     1  UNL1        0.1340
      7 C         139.4528  139.9624  167.5273 C.3     1  UNL1        0.0521
      8 C         140.1156  140.9380  166.6006 C.ar    1  UNL1        0.0593
      9 C         139.3427  141.5343  165.4618 C.ar    1  UNL1        0.0147
     10 C         140.0055  142.5100  164.5350 C.ar    1  UNL1        0.0028
     11 C         141.4411  142.8893  164.7471 C.ar    1  UNL1        0.0206
     12 C         142.1039  143.8649  163.8204 C.ar    1  UNL1        0.0374
     13 C         143.5395  144.2442  164.0325 C.ar    1  UNL1        0.0031
     14 C         144.3125  143.6479  165.1713 C.ar    1  UNL1        0.0016
     15 C         143.6497  142.6722  166.0981 C.ar    1  UNL1        0.0191
     16 C         142.2140  142.2929  165.8859 C.ar    1  UNL1        0.0810
     17 N         141.5512  141.3173  166.8127 N.ar    1  UNL1       -0.2497
     18 S         140.4511  145.0471  158.9467 S.3     1  UNL1       -0.0756
     19 C         139.6778  143.9830  158.2260 C.3     1  UNL1        0.0666
     20 C         139.7455  142.5595  158.6942 C.3     1  UNL1        0.0294
     21 C         138.4966  141.8542  159.1333 C.3     1  UNL1        0.0730
     22 N         138.5617  140.8180  160.2160 N.3     1  UNL1       -0.2724
     23 C         137.4539  139.8885  160.6144 C.3     1  UNL1        0.0724
     24 C         137.9534  139.0254  161.7349 C.3     1  UNL1        0.0214
     25 C         138.7180  138.3261  162.8196 C.3     1  UNL1        0.0072
     26 C         139.3699  139.4216  162.0290 C.3     1  UNL1        0.0350
     27 C         139.7459  140.5294  161.0903 C.3     1  UNL1        0.0761
     28 C         140.6904  139.3620  162.7380 C.ar    1  UNL1       -0.0214
     29 C         140.8563  138.4832  163.9422 C.ar    1  UNL1       -0.0037
     30 C         142.1768  138.4236  164.6512 C.ar    1  UNL1        0.0064
     31 C         143.3315  139.2430  164.1560 C.ar    1  UNL1        0.0345
     32 BR        144.6521  139.1834  164.8650 Br      1  UNL1       -0.0490
     33 C         143.1657  140.1218  162.9519 C.ar    1  UNL1        0.0064
     34 C         141.8452  140.1814  162.2429 C.ar    1  UNL1       -0.0037
@<TRIPOS>BOND
     1     7     8    1
     2     8     9   ar
     3     9    10   ar
     4    10    11   ar
     5    11    12   ar
     6    12     1    1
     7     1     2   ar
     8     2     3   ar
     9     3     4   ar
    10     4    18    1
    11    18    19    1
    12    19    20    1
    13    20    21    1
    14    21    22    1
    15    22    23    1
    16    24    23    1
    17    24    25    1
    18    25    26    1
    19    26    28    1
    20    28    29   ar
    21    29    30   ar
    22    30    31   ar
    23    31    32    1
    24    31    33   ar
    25    33    34   ar
    26    26    27    1
    27     4     5   ar
    28     5     6    1
    29    12    13   ar
    30    13    14   ar
    31    14    15   ar
    32    15    16   ar
    33    16    17   ar
    34    17     8   ar
    35    16    11   ar
    36     5     1   ar
    37    27    22    1
    38    26    24    1
    39    34    28   ar
@<TRIPOS>MOLECULE
*****
 34 39 0 0 0
SMALL
GASTEIGER

@<TRIPOS>ATOM
      1 C         139.0235  140.8160  161.9620 C.ar    1  UNL1        0.1669
      2 N         138.0014  141.8574  162.3099 N.ar    1  UNL1       -0.1282
      3 N         137.8525  142.7728  161.1311 N.ar    1  UNL1       -0.1221
      4 C         138.7825  142.2973  160.0545 C.ar    1  UNL1        0.1932
      5 N         139.5062  141.0879  160.5680 N.ar    1  UNL1       -0.2884
      6 C         140.5325  140.2904  159.8191 C.3     1  UNL1        0.1340
      7 C         145.2487  139.3246  164.4665 C.3     1  UNL1        0.0521
      8 C         143.8071  139.4182  164.0628 C.ar    1  UNL1        0.0593
      9 C         143.3484  140.5353  163.1731 C.ar    1  UNL1        0.0147
     10 C         141.9067  140.6288  162.7694 C.ar    1  UNL1        0.0028
     11 C         140.9238  139.6053  163.2554 C.ar    1  UNL1        0.0206
     12 C         139.4822  139.6989  162.8517 C.ar    1  UNL1        0.0374
     13 C         138.4993  138.6754  163.3377 C.ar    1  UNL1        0.0031
     14 C         138.9580  137.5582  164.2275 C.ar    1  UNL1        0.0016
     15 C         140.3996  137.4646  164.6312 C.ar    1  UNL1        0.0191
     16 C         141.3825  138.4882  164.1451 C.ar    1  UNL1        0.0810
     17 N         142.8242  138.3947  164.5488 N.ar    1  UNL1       -0.2497
     18 S         138.9580  142.9216  158.7019 S.3     1  UNL1       -0.0756
     19 C         140.0796  143.8883  158.4619 C.3     1  UNL1        0.0666
     20 C         140.3115  145.0203  159.4182 C.3     1  UNL1        0.0294
     21 C         141.1554  144.8089  160.6402 C.3     1  UNL1        0.0730
     22 N         140.5105  144.7266  161.9920 N.3     1  UNL1       -0.2724
     23 C         139.3550  145.5554  162.4695 C.3     1  UNL1        0.0724
     24 C         139.0383  145.1421  163.8762 C.3     1  UNL1        0.0214
     25 C         138.9596  144.5288  165.2429 C.3     1  UNL1        0.0072
     26 C         139.9980  144.0580  164.2681 C.3     1  UNL1        0.0350
     27 C         140.9078  143.8012  163.1036 C.3     1  UNL1        0.0761
     28 C         140.6124  143.0341  165.1759 C.ar    1  UNL1       -0.0214
     29 C         139.7553  141.9710  165.7963 C.ar    1  UNL1       -0.0037
     30 C         140.3697  140.9471  166.7041 C.ar    1  UNL1        0.0064
     31 C         141.8414  140.9864  166.9916 C.ar    1  UNL1        0.0345
     32 BR        142.4558  139.9625  167.8994 Br      1  UNL1       -0.0490
     33 C         142.6985  142.0495  166.3712 C.ar    1  UNL1        0.0064
     34 C         142.0841  143.0734  165.4634 C.ar    1  UNL1       -0.0037
@<TRIPOS>BOND
     1     7     8    1
     2     8     9   ar
     3     9    10   ar
     4    10    11   ar
     5    11    12   ar
     6    12     1    1
     7     1     2   ar
     8     2     3   ar
     9     3     4   ar
    10     4    18    1
    11    18    19    1
    12    19    20    1
    13    20    21    1
    14    21    22    1
    15    22    23    1
    16    24    23    1
    17    24    25    1
    18    25    26    1
    19    26    28    1
    20    28    29   ar
    21    29    30   ar
    22    30    31   ar
    23    31    32    1
    24    31    33   ar
    25    33    34   ar
    26    26    27    1
    27     4     5   ar
    28     5     6    1
    29    12    13   ar
    30    13    14   ar
    31    14    15   ar
    32    15    16   ar
    33    16    17   ar
    34    17     8   ar
    35    16    11   ar
    36     5     1   ar
    37    27    22    1
    38    26    24    1
    39    34    28   ar
@<TRIPOS>MOLECULE
*****
 34 39 0 0 0
SMALL
GASTEIGER

@<TRIPOS>ATOM
      1 C         141.5556  142.9420  164.9399 C.ar    1  UNL1        0.1669
      2 N         142.1083  142.4481  166.2440 N.ar    1  UNL1       -0.1282
      3 N         143.5977  142.3374  166.1041 N.ar    1  UNL1       -0.1221
      4 C         143.9655  142.7629  164.7135 C.ar    1  UNL1        0.1932
      5 N         142.7034  143.1366  163.9940 N.ar    1  UNL1       -0.2884
      6 C         142.6062  143.6199  162.5773 C.3     1  UNL1        0.1340
      7 C         137.1690  139.6114  160.8271 C.3     1  UNL1        0.0521
      8 C         137.9041  140.5077  161.7792 C.ar    1  UNL1        0.0593
      9 C         139.3505  140.2531  162.0838 C.ar    1  UNL1        0.0147
     10 C         140.0856  141.1494  163.0358 C.ar    1  UNL1        0.0028
     11 C         139.3741  142.3003  163.6832 C.ar    1  UNL1        0.0206
     12 C         140.1091  143.1967  164.6352 C.ar    1  UNL1        0.0374
     13 C         139.3977  144.3476  165.2826 C.ar    1  UNL1        0.0031
     14 C         137.9511  144.6023  164.9780 C.ar    1  UNL1        0.0016
     15 C         137.2161  143.7059  164.0259 C.ar    1  UNL1        0.0191
     16 C         137.9276  142.5550  163.3786 C.ar    1  UNL1        0.0810
     17 N         137.1926  141.6586  162.4265 N.ar    1  UNL1       -0.2497
     18 S         145.3519  142.8070  164.1426 S.3     1  UNL1       -0.0756
     19 C         145.7584  141.8258  163.0834 C.3     1  UNL1        0.0666
     20 C         144.7354  140.9137  162.4737 C.3     1  UNL1        0.0294
     21 C         144.6669  139.4757  162.8948 C.3     1  UNL1        0.0730
     22 N         143.3825  138.9094  163.4239 N.3     1  UNL1       -0.2724
     23 C         142.5303  137.8762  162.7486 C.3     1  UNL1        0.0724
     24 C         141.3460  137.6052  163.6283 C.3     1  UNL1        0.0214
     25 C         140.2938  137.5477  164.6959 C.3     1  UNL1        0.0072
     26 C         141.4663  138.4710  164.8473 C.3     1  UNL1        0.0350
     27 C         142.7249  139.2771  164.7209 C.3     1  UNL1        0.0761
     28 C         141.0538  139.0316  166.1760 C.ar    1  UNL1       -0.0214
     29 C         139.6209  139.4004  166.4223 C.ar    1  UNL1       -0.0037
     30 C         139.2084  139.9611  167.7510 C.ar    1  UNL1        0.0064
     31 C         140.2289  140.1530  168.8335 C.ar    1  UNL1        0.0345
     32 BR        139.8164  140.7136  170.1623 Br      1  UNL1       -0.0490
     33 C         141.6618  139.7842  168.5872 C.ar    1  UNL1        0.0064
     34 C         142.0743  139.2235  167.2585 C.ar    1  UNL1       -0.0037
@<TRIPOS>BOND
     1     7     8    1
     2     8     9   ar
     3     9    10   ar
     4    10    11   ar
     5    11    12   ar
     6    12     1    1
     7     1     2   ar
     8     2     3   ar
     9     3     4   ar
    10     4    18    1
    11    18    19    1
    12    19    20    1
    13    20    21    1
    14    21    22    1
    15    22    23    1
    16    24    23    1
    17    24    25    1
    18    25    26    1
    19    26    28    1
    20    28    29   ar
    21    29    30   ar
    22    30    31   ar
    23    31    32    1
    24    31    33   ar
    25    33    34   ar
    26    26    27    1
    27     4     5   ar
    28     5     6    1
    29    12    13   ar
    30    13    14   ar
    31    14    15   ar
    32    15    16   ar
    33    16    17   ar
    34    17     8   ar
    35    16    11   ar
    36     5     1   ar
    37    27    22    1
    38    26    24    1
    39    34    28   ar
@<TRIPOS>MOLECULE
*****
 34 39 0 0 0
SMALL
GASTEIGER

@<TRIPOS>ATOM
      1 C         142.2133  142.7425  161.1018 C.ar    1  UNL1        0.1669
      2 N         142.9831  142.2843  159.8986 N.ar    1  UNL1       -0.1282
      3 N         142.0271  142.1843  158.7470 N.ar    1  UNL1       -0.1221
      4 C         140.6664  142.5807  159.2384 C.ar    1  UNL1        0.1932
      5 N         140.7815  142.9258  160.6937 N.ar    1  UNL1       -0.2884
      6 C         139.6614  143.3751  161.5846 C.3     1  UNL1        0.1340
      7 C         143.4100  138.3827  166.2796 C.3     1  UNL1        0.0521
      8 C         143.2516  139.5312  165.3277 C.ar    1  UNL1        0.0593
      9 C         142.6885  139.2972  163.9573 C.ar    1  UNL1        0.0147
     10 C         142.5301  140.4457  163.0055 C.ar    1  UNL1        0.0028
     11 C         142.9347  141.8280  163.4240 C.ar    1  UNL1        0.0206
     12 C         142.7763  142.9765  162.4722 C.ar    1  UNL1        0.0374
     13 C         143.1810  144.3588  162.8908 C.ar    1  UNL1        0.0031
     14 C         143.7442  144.5928  164.2613 C.ar    1  UNL1        0.0016
     15 C         143.9026  143.4444  165.2132 C.ar    1  UNL1        0.0191
     16 C         143.4978  142.0619  164.7945 C.ar    1  UNL1        0.0810
     17 N         143.6562  140.9135  165.7463 N.ar    1  UNL1       -0.2497
     18 S         139.4111  142.6245  158.4185 S.3     1  UNL1       -0.0756
     19 C         138.2835  141.6832  158.7226 C.3     1  UNL1        0.0666
     20 C         138.5295  140.4647  159.5621 C.3     1  UNL1        0.0294
     21 C         137.5947  140.1269  160.6856 C.3     1  UNL1        0.0730
     22 N         138.1144  139.4365  161.9118 N.3     1  UNL1       -0.2724
     23 C         138.2275  137.9537  162.1075 C.3     1  UNL1        0.0724
     24 C         138.7951  137.7085  163.4741 C.3     1  UNL1        0.0214
     25 C         139.3640  137.7763  164.8604 C.3     1  UNL1        0.0072
     26 C         139.0329  139.0398  164.1230 C.3     1  UNL1        0.0350
     27 C         138.6121  140.1078  163.1574 C.3     1  UNL1        0.0761
     28 C         139.4614  139.9753  165.2144 C.ar    1  UNL1       -0.0214
     29 C         139.5954  141.4428  164.9348 C.ar    1  UNL1       -0.0037
     30 C         140.0239  142.3783  166.0262 C.ar    1  UNL1        0.0064
     31 C         140.3184  141.8462  167.3974 C.ar    1  UNL1        0.0345
     32 BR        140.7469  142.7816  168.4889 Br      1  UNL1       -0.0490
     33 C         140.1844  140.3786  167.6771 C.ar    1  UNL1        0.0064
     34 C         139.7558  139.4432  166.5856 C.ar    1  UNL1       -0.0037
@<TRIPOS>BOND
     1     7     8    1
     2     8     9   ar
     3     9    10   ar
     4    10    11   ar
     5    11    12   ar
     6    12     1    1
     7     1     2   ar
     8     2     3   ar
     9     3     4   ar
    10     4    18    1
    11    18    19    1
    12    19    20    1
    13    20    21    1
    14    21    22    1
    15    22    23    1
    16    24    23    1
    17    24    25    1
    18    25    26    1
    19    26    28    1
    20    28    29   ar
    21    29    30   ar
    22    30    31   ar
    23    31    32    1
    24    31    33   ar
    25    33    34   ar
    26    26    27    1
    27     4     5   ar
    28     5     6    1
    29    12    13   ar
    30    13    14   ar
    31    14    15   ar
    32    15    16   ar
    33    16    17   ar
    34    17     8   ar
    35    16    11   ar
    36     5     1   ar
    37    27    22    1
    38    26    24    1
    39    34    28   ar
@<TRIPOS>MOLECULE
*****
 34 39 0 0 0
SMALL
GASTEIGER

@<TRIPOS>ATOM
      1 C         140.3929  143.4605  161.9876 C.ar    1  UNL1        0.1669
      2 N         138.9728  143.5722  162.4576 N.ar    1  UNL1       -0.1282
      3 N         138.0756  143.1995  161.3147 N.ar    1  UNL1       -0.1221
      4 C         138.9412  142.8575  160.1383 C.ar    1  UNL1        0.1932
      5 N         140.3734  143.0189  160.5542 N.ar    1  UNL1       -0.2884
      6 C         141.5751  142.7804  159.6887 C.3     1  UNL1        0.1340
      7 C         145.1402  139.2205  164.5830 C.3     1  UNL1        0.0521
      8 C         144.2595  140.3507  164.1391 C.ar    1  UNL1        0.0593
      9 C         143.0350  140.0700  163.3195 C.ar    1  UNL1        0.0147
     10 C         142.1543  141.2002  162.8756 C.ar    1  UNL1        0.0028
     11 C         142.4981  142.6111  163.2511 C.ar    1  UNL1        0.0206
     12 C         141.6175  143.7412  162.8071 C.ar    1  UNL1        0.0374
     13 C         141.9613  145.1521  163.1827 C.ar    1  UNL1        0.0031
     14 C         143.1859  145.4329  164.0022 C.ar    1  UNL1        0.0016
     15 C         144.0666  144.3028  164.4462 C.ar    1  UNL1        0.0191
     16 C         143.7227  142.8918  164.0706 C.ar    1  UNL1        0.0810
     17 N         144.6034  141.7616  164.5146 N.ar    1  UNL1       -0.2497
     18 S         138.4593  142.4294  158.7839 S.3     1  UNL1       -0.0756
     19 C         137.9357  141.0388  158.5792 C.3     1  UNL1        0.0666
     20 C         138.4490  139.9120  159.4258 C.3     1  UNL1        0.0294
     21 C         137.9430  139.7358  160.8268 C.3     1  UNL1        0.0730
     22 N         138.7848  139.0244  161.8444 N.3     1  UNL1       -0.2724
     23 C         139.7328  137.8948  161.5701 C.3     1  UNL1        0.0724
     24 C         140.3602  137.4899  162.8710 C.3     1  UNL1        0.0214
     25 C         140.8092  137.3136  164.2914 C.3     1  UNL1        0.0072
     26 C         139.8001  138.3694  163.9493 C.3     1  UNL1        0.0350
     27 C         138.8264  139.3178  163.3148 C.3     1  UNL1        0.0761
     28 C         139.6307  138.8835  165.3482 C.ar    1  UNL1       -0.0214
     29 C         140.7285  139.6756  165.9943 C.ar    1  UNL1       -0.0037
     30 C         140.5591  140.1897  167.3932 C.ar    1  UNL1        0.0064
     31 C         139.2919  139.9116  168.1462 C.ar    1  UNL1        0.0345
     32 BR        139.1226  140.4257  169.5451 Br      1  UNL1       -0.0490
     33 C         138.1942  139.1195  167.5001 C.ar    1  UNL1        0.0064
     34 C         138.3635  138.6054  166.1012 C.ar    1  UNL1       -0.0037
@<TRIPOS>BOND
     1     7     8    1
     2     8     9   ar
     3     9    10   ar
     4    10    11   ar
     5    11    12   ar
     6    12     1    1
     7     1     2   ar
     8     2     3   ar
     9     3     4   ar
    10     4    18    1
    11    18    19    1
    12    19    20    1
    13    20    21    1
    14    21    22    1
    15    22    23    1
    16    24    23    1
    17    24    25    1
    18    25    26    1
    19    26    28    1
    20    28    29   ar
    21    29    30   ar
    22    30    31   ar
    23    31    32    1
    24    31    33   ar
    25    33    34   ar
    26    26    27    1
    27     4     5   ar
    28     5     6    1
    29    12    13   ar
    30    13    14   ar
    31    14    15   ar
    32    15    16   ar
    33    16    17   ar
    34    17     8   ar
    35    16    11   ar
    36     5     1   ar
    37    27    22    1
    38    26    24    1
    39    34    28   ar
@<TRIPOS>MOLECULE
*****
 34 39 0 0 0
SMALL
GASTEIGER

@<TRIPOS>ATOM
      1 C         140.0669  142.7404  164.7685 C.ar    1  UNL1        0.1669
      2 N         141.4360  143.3396  164.8975 N.ar    1  UNL1       -0.1282
      3 N         141.5268  144.4970  163.9477 N.ar    1  UNL1       -0.1221
      4 C         140.2139  144.6132  163.2316 C.ar    1  UNL1        0.1932
      5 N         139.3116  143.5275  163.7390 N.ar    1  UNL1       -0.2884
      6 C         137.9016  143.2736  163.2947 C.3     1  UNL1        0.1340
      7 C         141.2105  140.7114  171.2358 C.3     1  UNL1        0.0521
      8 C         140.7941  140.9238  169.8105 C.ar    1  UNL1        0.0593
      9 C         141.3161  142.1030  169.0444 C.ar    1  UNL1        0.0147
     10 C         140.8997  142.3155  167.6191 C.ar    1  UNL1        0.0028
     11 C         139.9613  141.3487  166.9599 C.ar    1  UNL1        0.0206
     12 C         139.5449  141.5612  165.5346 C.ar    1  UNL1        0.0374
     13 C         138.6064  140.5944  164.8753 C.ar    1  UNL1        0.0031
     14 C         138.0843  139.4151  165.6414 C.ar    1  UNL1        0.0016
     15 C         138.5007  139.2027  167.0667 C.ar    1  UNL1        0.0191
     16 C         139.4392  140.1695  167.7259 C.ar    1  UNL1        0.0810
     17 N         139.8556  139.9571  169.1512 N.ar    1  UNL1       -0.2497
     18 S         139.8645  145.6355  162.1910 S.3     1  UNL1       -0.0756
     19 C         140.0457  145.3172  160.7365 C.3     1  UNL1        0.0666
     20 C         140.4576  143.9374  160.3163 C.3     1  UNL1        0.0294
     21 C         139.4384  142.9863  159.7628 C.3     1  UNL1        0.0730
     22 N         139.4357  141.5515  160.2006 N.3     1  UNL1       -0.2724
     23 C         138.6504  140.4393  159.5712 C.3     1  UNL1        0.0724
     24 C         138.9472  139.1775  160.3261 C.3     1  UNL1        0.0214
     25 C         139.4292  138.1012  161.2531 C.3     1  UNL1        0.0072
     26 C         139.9159  139.5100  161.4220 C.3     1  UNL1        0.0350
     27 C         140.2179  140.9772  161.3444 C.3     1  UNL1        0.0761
     28 C         140.7999  139.2302  162.6011 C.ar    1  UNL1       -0.0214
     29 C         141.8717  140.2073  162.9836 C.ar    1  UNL1       -0.0037
     30 C         142.7556  139.9275  164.1628 C.ar    1  UNL1        0.0064
     31 C         142.5677  138.6706  164.9595 C.ar    1  UNL1        0.0345
     32 BR        143.4516  138.3908  166.1386 Br      1  UNL1       -0.0490
     33 C         141.4958  137.6935  164.5770 C.ar    1  UNL1        0.0064
     34 C         140.6119  137.9733  163.3979 C.ar    1  UNL1       -0.0037
@<TRIPOS>BOND
     1     7     8    1
     2     8     9   ar
     3     9    10   ar
     4    10    11   ar
     5    11    12   ar
     6    12     1    1
     7     1     2   ar
     8     2     3   ar
     9     3     4   ar
    10     4    18    1
    11    18    19    1
    12    19    20    1
    13    20    21    1
    14    21    22    1
    15    22    23    1
    16    24    23    1
    17    24    25    1
    18    25    26    1
    19    26    28    1
    20    28    29   ar
    21    29    30   ar
    22    30    31   ar
    23    31    32    1
    24    31    33   ar
    25    33    34   ar
    26    26    27    1
    27     4     5   ar
    28     5     6    1
    29    12    13   ar
    30    13    14   ar
    31    14    15   ar
    32    15    16   ar
    33    16    17   ar
    34    17     8   ar
    35    16    11   ar
    36     5     1   ar
    37    27    22    1
    38    26    24    1
    39    34    28   ar
@<TRIPOS>MOLECULE
*****
 34 39 0 0 0
SMALL
GASTEIGER

@<TRIPOS>ATOM
      1 C         138.9311  142.8873  161.0173 C.ar    1  UNL1        0.1669
      2 N         139.2266  143.8335  159.8915 N.ar    1  UNL1       -0.1282
      3 N         139.0016  143.1031  158.6008 N.ar    1  UNL1       -0.1221
      4 C         138.5670  141.7054  158.9288 C.ar    1  UNL1        0.1932
      5 N         138.5234  141.5720  160.4223 N.ar    1  UNL1       -0.2884
      6 C         138.1396  140.3397  161.1866 C.3     1  UNL1        0.1340
      7 C         144.3407  142.9769  165.2573 C.3     1  UNL1        0.0521
      8 C         143.0121  143.0330  164.5632 C.ar    1  UNL1        0.0593
      9 C         142.9167  142.7191  163.0996 C.ar    1  UNL1        0.0147
     10 C         141.5882  142.7752  162.4055 C.ar    1  UNL1        0.0028
     11 C         140.3550  143.1451  163.1750 C.ar    1  UNL1        0.0206
     12 C         139.0264  143.2011  162.4809 C.ar    1  UNL1        0.0374
     13 C         137.7932  143.5711  163.2505 C.ar    1  UNL1        0.0031
     14 C         137.8885  143.8850  164.7142 C.ar    1  UNL1        0.0016
     15 C         139.2170  143.8289  165.4083 C.ar    1  UNL1        0.0191
     16 C         140.4503  143.4590  164.6387 C.ar    1  UNL1        0.0810
     17 N         141.7789  143.4029  165.3328 N.ar    1  UNL1       -0.2497
     18 S         138.2345  140.6300  157.9375 S.3     1  UNL1       -0.0756
     19 C         139.2259  139.5413  157.6511 C.3     1  UNL1        0.0666
     20 C         140.5541  139.5342  158.3481 C.3     1  UNL1        0.0294
     21 C         140.9288  138.3850  159.2363 C.3     1  UNL1        0.0730
     22 N         141.8612  138.6024  160.3910 N.3     1  UNL1       -0.2724
     23 C         143.3589  138.5384  160.3389 C.3     1  UNL1        0.0724
     24 C         143.8829  138.8185  161.7162 C.3     1  UNL1        0.0214
     25 C         144.1035  139.1254  163.1679 C.3     1  UNL1        0.0072
     26 C         142.7091  139.0556  162.6195 C.3     1  UNL1        0.0350
     27 C         141.4596  138.9221  161.8004 C.3     1  UNL1        0.0761
     28 C         142.0160  139.3607  163.9142 C.ar    1  UNL1       -0.0214
     29 C         140.5268  139.5381  163.9442 C.ar    1  UNL1       -0.0037
     30 C         139.8337  139.8432  165.2390 C.ar    1  UNL1        0.0064
     31 C         140.6298  139.9710  166.5039 C.ar    1  UNL1        0.0345
     32 BR        139.9366  140.2761  167.7987 Br      1  UNL1       -0.0490
     33 C         142.1189  139.7936  166.4739 C.ar    1  UNL1        0.0064
     34 C         142.8120  139.4885  165.1792 C.ar    1  UNL1       -0.0037
@<TRIPOS>BOND
     1     7     8    1
     2     8     9   ar
     3     9    10   ar
     4    10    11   ar
     5    11    12   ar
     6    12     1    1
     7     1     2   ar
     8     2     3   ar
     9     3     4   ar
    10     4    18    1
    11    18    19    1
    12    19    20    1
    13    20    21    1
    14    21    22    1
    15    22    23    1
    16    24    23    1
    17    24    25    1
    18    25    26    1
    19    26    28    1
    20    28    29   ar
    21    29    30   ar
    22    30    31   ar
    23    31    32    1
    24    31    33   ar
    25    33    34   ar
    26    26    27    1
    27     4     5   ar
    28     5     6    1
    29    12    13   ar
    30    13    14   ar
    31    14    15   ar
    32    15    16   ar
    33    16    17   ar
    34    17     8   ar
    35    16    11   ar
    36     5     1   ar
    37    27    22    1
    38    26    24    1
    39    34    28   ar
@<TRIPOS>MOLECULE
*****
 34 39 0 0 0
SMALL
GASTEIGER

@<TRIPOS>ATOM
      1 C         141.1902  138.3812  162.7374 C.ar    1  UNL1        0.1669
      2 N         142.6037  137.9666  163.0209 N.ar    1  UNL1       -0.1282
      3 N         143.2946  137.7468  161.7078 N.ar    1  UNL1       -0.1221
      4 C         142.3081  138.0256  160.6126 C.ar    1  UNL1        0.1932
      5 N         141.0075  138.4176  161.2490 N.ar    1  UNL1       -0.2884
      6 C         139.7459  138.7821  160.5242 C.3     1  UNL1        0.1340
      7 C         137.8658  144.2442  164.0877 C.3     1  UNL1        0.0521
      8 C         138.4352  142.8589  164.0063 C.ar    1  UNL1        0.0593
      9 C         139.4821  142.5372  162.9814 C.ar    1  UNL1        0.0147
     10 C         140.0515  141.1519  162.9001 C.ar    1  UNL1        0.0028
     11 C         139.5739  140.0882  163.8437 C.ar    1  UNL1        0.0206
     12 C         140.1433  138.7028  163.7624 C.ar    1  UNL1        0.0374
     13 C         139.6658  137.6391  164.7059 C.ar    1  UNL1        0.0031
     14 C         138.6188  137.9607  165.7309 C.ar    1  UNL1        0.0016
     15 C         138.0494  139.3460  165.8123 C.ar    1  UNL1        0.0191
     16 C         138.5270  140.4098  164.8686 C.ar    1  UNL1        0.0810
     17 N         137.9577  141.7951  164.9499 N.ar    1  UNL1       -0.2497
     18 S         142.5753  137.9292  159.1398 S.3     1  UNL1       -0.0756
     19 C         142.9996  139.1467  158.3733 C.3     1  UNL1        0.0666
     20 C         143.1272  140.4671  159.0736 C.3     1  UNL1        0.0294
     21 C         144.3120  140.7383  159.9527 C.3     1  UNL1        0.0730
     22 N         144.1865  141.6851  161.1094 N.3     1  UNL1       -0.2724
     23 C         144.6400  143.1147  161.1317 C.3     1  UNL1        0.0724
     24 C         144.3194  143.6816  162.4829 C.3     1  UNL1        0.0214
     25 C         143.8849  143.9619  163.8910 C.3     1  UNL1        0.0072
     26 C         143.6677  142.6024  163.2957 C.3     1  UNL1        0.0350
     27 C         143.5856  141.3684  162.4468 C.3     1  UNL1        0.0761
     28 C         143.0214  142.0015  164.5086 C.ar    1  UNL1       -0.0214
     29 C         143.3146  140.5804  164.8884 C.ar    1  UNL1       -0.0037
     30 C         142.6683  139.9795  166.1013 C.ar    1  UNL1        0.0064
     31 C         141.7286  140.7998  166.9345 C.ar    1  UNL1        0.0345
     32 BR        141.0823  140.1990  168.1474 Br      1  UNL1       -0.0490
     33 C         141.4354  142.2210  166.5547 C.ar    1  UNL1        0.0064
     34 C         142.0817  142.8218  165.3418 C.ar    1  UNL1       -0.0037
@<TRIPOS>BOND
     1     7     8    1
     2     8     9   ar
     3     9    10   ar
     4    10    11   ar
     5    11    12   ar
     6    12     1    1
     7     1     2   ar
     8     2     3   ar
     9     3     4   ar
    10     4    18    1
    11    18    19    1
    12    19    20    1
    13    20    21    1
    14    21    22    1
    15    22    23    1
    16    24    23    1
    17    24    25    1
    18    25    26    1
    19    26    28    1
    20    28    29   ar
    21    29    30   ar
    22    30    31   ar
    23    31    32    1
    24    31    33   ar
    25    33    34   ar
    26    26    27    1
    27     4     5   ar
    28     5     6    1
    29    12    13   ar
    30    13    14   ar
    31    14    15   ar
    32    15    16   ar
    33    16    17   ar
    34    17     8   ar
    35    16    11   ar
    36     5     1   ar
    37    27    22    1
    38    26    24    1
    39    34    28   ar
@<TRIPOS>MOLECULE
*****
 34 39 0 0 0
SMALL
GASTEIGER

@<TRIPOS>ATOM
      1 C         140.3360  142.4061  164.0415 C.ar    1  UNL1        0.1669
      2 N         141.6800  143.0159  164.3100 N.ar    1  UNL1       -0.1282
      3 N         141.8272  144.2202  163.4281 N.ar    1  UNL1       -0.1221
      4 C         140.5742  144.3550  162.6145 C.ar    1  UNL1        0.1932
      5 N         139.6526  143.2337  162.9937 N.ar    1  UNL1       -0.2884
      6 C         138.2873  142.9840  162.4248 C.3     1  UNL1        0.1340
      7 C         140.0784  140.5968  170.6680 C.3     1  UNL1        0.0521
      8 C         140.0024  140.7435  169.1771 C.ar    1  UNL1        0.0593
      9 C         140.5642  141.9661  168.5141 C.ar    1  UNL1        0.0147
     10 C         140.4881  142.1128  167.0233 C.ar    1  UNL1        0.0028
     11 C         139.8502  141.0369  166.1954 C.ar    1  UNL1        0.0206
     12 C         139.7742  141.1836  164.7045 C.ar    1  UNL1        0.0374
     13 C         139.1363  140.1077  163.8766 C.ar    1  UNL1        0.0031
     14 C         138.5744  138.8850  164.5396 C.ar    1  UNL1        0.0016
     15 C         138.6504  138.7383  166.0304 C.ar    1  UNL1        0.0191
     16 C         139.2884  139.8143  166.8583 C.ar    1  UNL1        0.0810
     17 N         139.3645  139.6676  168.3492 N.ar    1  UNL1       -0.2497
     18 S         140.2923  145.4232  161.6000 S.3     1  UNL1       -0.0756
     19 C         140.6730  145.2134  160.1644 C.3     1  UNL1        0.0666
     20 C         141.0235  143.8396  159.6745 C.3     1  UNL1        0.0294
     21 C         142.4618  143.4410  159.5249 C.3     1  UNL1        0.0730
     22 N         142.9007  142.0585  159.9074 N.3     1  UNL1       -0.2724
     23 C         143.4189  141.0075  158.9711 C.3     1  UNL1        0.0724
     24 C         143.7369  139.7838  159.7783 C.3     1  UNL1        0.0214
     25 C         143.9561  138.7340  160.8271 C.3     1  UNL1        0.0072
     26 C         143.4152  140.0787  161.2134 C.3     1  UNL1        0.0350
     27 C         142.8983  141.4846  161.2932 C.3     1  UNL1        0.0761
     28 C         143.2998  139.7858  162.6800 C.ar    1  UNL1       -0.0214
     29 C         144.0380  140.6322  163.6742 C.ar    1  UNL1       -0.0037
     30 C         143.9226  140.3393  165.1408 C.ar    1  UNL1        0.0064
     31 C         143.0689  139.1999  165.6132 C.ar    1  UNL1        0.0345
     32 BR        142.9535  138.9071  167.0798 Br      1  UNL1       -0.0490
     33 C         142.3307  138.3536  164.6189 C.ar    1  UNL1        0.0064
     34 C         142.4461  138.6464  163.1524 C.ar    1  UNL1       -0.0037
@<TRIPOS>BOND
     1     7     8    1
     2     8     9   ar
     3     9    10   ar
     4    10    11   ar
     5    11    12   ar
     6    12     1    1
     7     1     2   ar
     8     2     3   ar
     9     3     4   ar
    10     4    18    1
    11    18    19    1
    12    19    20    1
    13    20    21    1
    14    21    22    1
    15    22    23    1
    16    24    23    1
    17    24    25    1
    18    25    26    1
    19    26    28    1
    20    28    29   ar
    21    29    30   ar
    22    30    31   ar
    23    31    32    1
    24    31    33   ar
    25    33    34   ar
    26    26    27    1
    27     4     5   ar
    28     5     6    1
    29    12    13   ar
    30    13    14   ar
    31    14    15   ar
    32    15    16   ar
    33    16    17   ar
    34    17     8   ar
    35    16    11   ar
    36     5     1   ar
    37    27    22    1
    38    26    24    1
    39    34    28   ar
