@<TRIPOS>MOLECULE
*****
 33 37 0 0 0
SMALL
GASTEIGER

@<TRIPOS>ATOM
      1 C         140.3380  138.3371  163.0916 C.2     1  UNL1        0.2806
      2 O         140.8438  136.9534  162.8093 O.2     1  UNL1       -0.2668
      3 N         140.2272  139.3367  161.9786 N.am    1  UNL1       -0.2999
      4 H         139.8952  140.2448  162.1638 H       1  UNL1        0.1498
      5 C         140.5714  141.7343  168.6732 C.ar    1  UNL1       -0.0192
      6 C         139.4673  140.9960  169.3702 C.ar    1  UNL1       -0.0040
      7 C         138.7582  139.8736  168.6721 C.ar    1  UNL1        0.0059
      8 C         139.1531  139.4895  167.2770 C.ar    1  UNL1        0.0735
      9 C         138.4440  138.3670  166.5789 C.ar    1  UNL1        0.2018
     10 O         137.3399  137.6288  167.2760 O.2     1  UNL1       -0.2864
     11 C         138.8389  137.9829  165.1838 C.ar    1  UNL1        0.0843
     12 C         139.9431  138.7212  164.4867 C.ar    1  UNL1        0.2014
     13 O         140.6522  139.8436  165.1848 O.2     1  UNL1       -0.4487
     14 C         140.2572  140.2277  166.5800 C.ar    1  UNL1        0.1482
     15 C         140.9663  141.3502  167.2781 C.ar    1  UNL1        0.0333
     16 C         140.4933  143.9867  169.9657 C.3     1  UNL1        0.0050
     17 C         141.2805  142.8567  169.3713 C.3     1  UNL1        0.0265
     18 C         140.6221  138.9525  160.5834 C.3     1  UNL1        0.0747
     19 C         139.5719  138.5523  159.5900 C.3     1  UNL1        0.0369
     20 C         139.9668  138.1681  158.1948 C.3     1  UNL1        0.0741
     21 N         141.4120  138.1843  157.7931 N.3     1  UNL1       -0.2688
     22 C         142.4622  138.5845  158.7866 C.3     1  UNL1        0.0741
     23 C         142.0672  138.9687  160.1817 C.3     1  UNL1        0.0369
     24 C         141.8069  137.8001  156.3980 C.3     1  UNL1        0.0992
     25 C         142.3641  136.4344  156.1254 C.ar    1  UNL1       -0.0029
     26 C         142.1881  135.8086  154.7736 C.ar    1  UNL1        0.0004
     27 C         142.7453  134.4429  154.5011 C.ar    1  UNL1        0.0399
     28 C         143.4786  133.7030  155.5804 C.ar    1  UNL1        0.1764
     29 C         143.6546  134.3288  156.9322 C.ar    1  UNL1        0.1762
     30 C         143.0974  135.6945  157.2047 C.ar    1  UNL1        0.0373
     31 O         144.4176  133.3659  157.7928 O.3     1  UNL1       -0.4346
     32 C         144.7132  132.1451  156.9730 C.3     1  UNL1        0.4294
     33 O         144.1328  132.3534  155.6056 O.3     1  UNL1       -0.4346
@<TRIPOS>BOND
     1    16    17    1
     2    17     5    1
     3     5     6   ar
     4     6     7   ar
     5     7     8   ar
     6     8     9   ar
     7     9    10    2
     8     9    11   ar
     9    11    12   ar
    10    12     1    1
    11     1     2    2
    12     1     3   am
    13     3    18    1
    14    18    19    1
    15    19    20    1
    16    20    21    1
    17    21    24    1
    18    24    25    1
    19    25    26   ar
    20    26    27   ar
    21    27    28   ar
    22    28    29   ar
    23    29    30   ar
    24    29    31    1
    25    31    32    1
    26    32    33    1
    27    21    22    1
    28    22    23    1
    29    12    13   ar
    30    13    14   ar
    31    14    15   ar
    32    15     5   ar
    33    14     8   ar
    34    23    18    1
    35    30    25   ar
    36    33    28    1
    37     3     4    1
@<TRIPOS>MOLECULE
*****
 33 37 0 0 0
SMALL
GASTEIGER

@<TRIPOS>ATOM
      1 C         139.4580  143.2319  161.8773 C.2     1  UNL1        0.2806
      2 O         138.7101  144.5302  161.8055 O.2     1  UNL1       -0.2668
      3 N         140.2166  142.7362  160.6819 N.am    1  UNL1       -0.2999
      4 H         140.7074  141.8841  160.7290 H       1  UNL1        0.1498
      5 C         140.4420  142.0337  168.2291 C.ar    1  UNL1       -0.0192
      6 C         139.9232  140.6263  168.2211 C.ar    1  UNL1       -0.0040
      7 C         139.4151  140.0215  166.9459 C.ar    1  UNL1        0.0059
      8 C         139.4258  140.8241  165.6788 C.ar    1  UNL1        0.0735
      9 C         138.9178  140.2193  164.4036 C.ar    1  UNL1        0.2018
     10 O         138.3990  138.8119  164.3955 O.2     1  UNL1       -0.2864
     11 C         138.9285  141.0219  163.1364 C.ar    1  UNL1        0.0843
     12 C         139.4473  142.4293  163.1444 C.ar    1  UNL1        0.2014
     13 O         139.9553  143.0341  164.4196 O.2     1  UNL1       -0.4487
     14 C         139.9446  142.2315  165.6868 C.ar    1  UNL1        0.1482
     15 C         140.4527  142.8362  166.9620 C.ar    1  UNL1        0.0333
     16 C         140.4580  143.9856  169.9436 C.3     1  UNL1        0.0050
     17 C         140.9500  142.6384  169.5043 C.3     1  UNL1        0.0265
     18 C         140.2273  143.5388  159.4148 C.3     1  UNL1        0.0747
     19 C         139.2818  143.1960  158.3019 C.3     1  UNL1        0.0369
     20 C         139.2925  143.9986  157.0346 C.3     1  UNL1        0.0741
     21 N         140.2486  145.1440  156.8804 N.3     1  UNL1       -0.2688
     22 C         141.1941  145.4869  157.9934 C.3     1  UNL1        0.0741
     23 C         141.1834  144.6843  159.2605 C.3     1  UNL1        0.0369
     24 C         140.2593  145.9466  155.6133 C.3     1  UNL1        0.0992
     25 C         139.7299  147.3500  155.6099 C.ar    1  UNL1       -0.0029
     26 C         138.9002  147.8414  156.7590 C.ar    1  UNL1        0.0004
     27 C         138.3708  149.2449  156.7556 C.ar    1  UNL1        0.0399
     28 C         138.6710  150.1570  155.6033 C.ar    1  UNL1        0.1764
     29 C         139.5006  149.6656  154.4542 C.ar    1  UNL1        0.1762
     30 C         140.0301  148.2622  154.4575 C.ar    1  UNL1        0.0373
     31 O         139.6311  150.7853  153.4646 O.3     1  UNL1       -0.4346
     32 C         138.8821  151.9686  154.0020 C.3     1  UNL1        0.4294
     33 O         138.2887  151.5803  155.3237 O.3     1  UNL1       -0.4346
@<TRIPOS>BOND
     1    16    17    1
     2    17     5    1
     3     5     6   ar
     4     6     7   ar
     5     7     8   ar
     6     8     9   ar
     7     9    10    2
     8     9    11   ar
     9    11    12   ar
    10    12     1    1
    11     1     2    2
    12     1     3   am
    13     3    18    1
    14    18    19    1
    15    19    20    1
    16    20    21    1
    17    21    24    1
    18    24    25    1
    19    25    26   ar
    20    26    27   ar
    21    27    28   ar
    22    28    29   ar
    23    29    30   ar
    24    29    31    1
    25    31    32    1
    26    32    33    1
    27    21    22    1
    28    22    23    1
    29    12    13   ar
    30    13    14   ar
    31    14    15   ar
    32    15     5   ar
    33    14     8   ar
    34    23    18    1
    35    30    25   ar
    36    33    28    1
    37     3     4    1
@<TRIPOS>MOLECULE
*****
 33 37 0 0 0
SMALL
GASTEIGER

@<TRIPOS>ATOM
      1 C         142.7763  138.0508  158.8167 C.2     1  UNL1        0.2806
      2 O         143.6511  139.2351  158.5302 O.2     1  UNL1       -0.2668
      3 N         142.2730  137.8095  160.2090 N.am    1  UNL1       -0.2999
      4 H         141.6989  137.0322  160.3971 H       1  UNL1        0.1498
      5 C         143.2110  132.6828  155.1091 C.ar    1  UNL1       -0.0192
      6 C         142.0647  133.0094  154.1985 C.ar    1  UNL1       -0.0040
      7 C         141.2900  134.2790  154.3936 C.ar    1  UNL1        0.0059
      8 C         141.6616  135.2219  155.4993 C.ar    1  UNL1        0.0735
      9 C         140.8868  136.4915  155.6944 C.ar    1  UNL1        0.2018
     10 O         139.7406  136.8181  154.7838 O.2     1  UNL1       -0.2864
     11 C         141.2584  137.4344  156.8002 C.ar    1  UNL1        0.0843
     12 C         142.4047  137.1079  157.7109 C.ar    1  UNL1        0.2014
     13 O         143.1795  135.8383  157.5158 O.2     1  UNL1       -0.4487
     14 C         142.8078  134.8953  156.4100 C.ar    1  UNL1        0.1482
     15 C         143.5826  133.6258  156.2149 C.ar    1  UNL1        0.0333
     16 C         144.8486  130.8836  156.0208 C.3     1  UNL1        0.0050
     17 C         143.9857  131.4133  154.9141 C.3     1  UNL1        0.0265
     18 C         142.6446  138.7524  161.3148 C.3     1  UNL1        0.0747
     19 C         141.6995  139.8453  161.7177 C.3     1  UNL1        0.0369
     20 C         142.0710  140.7883  162.8236 C.3     1  UNL1        0.0741
     21 N         143.3877  140.6384  163.5263 N.3     1  UNL1       -0.2688
     22 C         144.3328  139.5456  163.1233 C.3     1  UNL1        0.0741
     23 C         143.9613  138.6026  162.0175 C.3     1  UNL1        0.0369
     24 C         143.7592  141.5814  164.6321 C.3     1  UNL1        0.0992
     25 C         143.2853  141.3206  166.0311 C.ar    1  UNL1       -0.0029
     26 C         142.7907  139.9571  166.4134 C.ar    1  UNL1        0.0004
     27 C         142.3167  139.6963  167.8125 C.ar    1  UNL1        0.0399
     28 C         142.3373  140.7989  168.8292 C.ar    1  UNL1        0.1764
     29 C         142.8319  142.1625  168.4468 C.ar    1  UNL1        0.1762
     30 C         143.3059  142.4233  167.0478 C.ar    1  UNL1        0.0373
     31 O         142.7358  143.0461  169.6551 O.3     1  UNL1       -0.4346
     32 C         142.1819  142.2287  170.7843 C.3     1  UNL1        0.4294
     33 O         141.9356  140.8399  170.2738 O.3     1  UNL1       -0.4346
@<TRIPOS>BOND
     1    16    17    1
     2    17     5    1
     3     5     6   ar
     4     6     7   ar
     5     7     8   ar
     6     8     9   ar
     7     9    10    2
     8     9    11   ar
     9    11    12   ar
    10    12     1    1
    11     1     2    2
    12     1     3   am
    13     3    18    1
    14    18    19    1
    15    19    20    1
    16    20    21    1
    17    21    24    1
    18    24    25    1
    19    25    26   ar
    20    26    27   ar
    21    27    28   ar
    22    28    29   ar
    23    29    30   ar
    24    29    31    1
    25    31    32    1
    26    32    33    1
    27    21    22    1
    28    22    23    1
    29    12    13   ar
    30    13    14   ar
    31    14    15   ar
    32    15     5   ar
    33    14     8   ar
    34    23    18    1
    35    30    25   ar
    36    33    28    1
    37     3     4    1
@<TRIPOS>MOLECULE
*****
 33 37 0 0 0
SMALL
GASTEIGER

@<TRIPOS>ATOM
      1 C         140.0928  144.8176  161.1551 C.2     1  UNL1        0.2806
      2 O         139.4117  146.1147  160.8331 O.2     1  UNL1       -0.2668
      3 N         140.7514  144.0255  160.0647 N.am    1  UNL1       -0.2999
      4 H         141.1984  143.1741  160.2759 H       1  UNL1        0.1498
      5 C         141.8164  140.9038  166.1009 C.ar    1  UNL1       -0.0192
      6 C         141.0108  141.5982  167.1586 C.ar    1  UNL1       -0.0040
      7 C         140.1827  142.7976  166.8040 C.ar    1  UNL1        0.0059
      8 C         140.1602  143.3026  165.3918 C.ar    1  UNL1        0.0735
      9 C         139.3321  144.5020  165.0373 C.ar    1  UNL1        0.2018
     10 O         138.5265  145.1964  166.0950 O.2     1  UNL1       -0.2864
     11 C         139.3096  145.0070  163.6251 C.ar    1  UNL1        0.0843
     12 C         140.1153  144.3126  162.5673 C.ar    1  UNL1        0.2014
     13 O         140.9434  143.1132  162.9218 O.2     1  UNL1       -0.4487
     14 C         140.9658  142.6082  164.3341 C.ar    1  UNL1        0.1482
     15 C         141.7939  141.4088  164.6886 C.ar    1  UNL1        0.0333
     16 C         143.5820  139.1146  165.4438 C.3     1  UNL1        0.0050
     17 C         142.6445  139.7044  166.4554 C.3     1  UNL1        0.0265
     18 C         140.7289  144.5305  158.6524 C.3     1  UNL1        0.0747
     19 C         141.8474  145.3922  158.1462 C.3     1  UNL1        0.0369
     20 C         141.8249  145.8973  156.7339 C.3     1  UNL1        0.0741
     21 N         140.6839  145.5405  155.8279 N.3     1  UNL1       -0.2688
     22 C         139.5654  144.6787  156.3342 C.3     1  UNL1        0.0741
     23 C         139.5879  144.1737  157.7464 C.3     1  UNL1        0.0369
     24 C         140.6614  146.0455  154.4157 C.3     1  UNL1        0.0992
     25 C         140.3145  147.4779  154.1369 C.ar    1  UNL1       -0.0029
     26 C         140.7516  148.1194  152.8533 C.ar    1  UNL1        0.0004
     27 C         140.4047  149.5519  152.5746 C.ar    1  UNL1        0.0399
     28 C         139.6207  150.3429  153.5793 C.ar    1  UNL1        0.1764
     29 C         139.1836  149.7015  154.8629 C.ar    1  UNL1        0.1762
     30 C         139.5305  148.2690  155.1417 C.ar    1  UNL1        0.0373
     31 O         138.4276  150.7242  155.6582 O.3     1  UNL1       -0.4346
     32 C         138.3974  151.9977  154.8661 C.3     1  UNL1        0.4294
     33 O         139.1348  151.7620  153.5814 O.3     1  UNL1       -0.4346
@<TRIPOS>BOND
     1    16    17    1
     2    17     5    1
     3     5     6   ar
     4     6     7   ar
     5     7     8   ar
     6     8     9   ar
     7     9    10    2
     8     9    11   ar
     9    11    12   ar
    10    12     1    1
    11     1     2    2
    12     1     3   am
    13     3    18    1
    14    18    19    1
    15    19    20    1
    16    20    21    1
    17    21    24    1
    18    24    25    1
    19    25    26   ar
    20    26    27   ar
    21    27    28   ar
    22    28    29   ar
    23    29    30   ar
    24    29    31    1
    25    31    32    1
    26    32    33    1
    27    21    22    1
    28    22    23    1
    29    12    13   ar
    30    13    14   ar
    31    14    15   ar
    32    15     5   ar
    33    14     8   ar
    34    23    18    1
    35    30    25   ar
    36    33    28    1
    37     3     4    1
@<TRIPOS>MOLECULE
*****
 33 37 0 0 0
SMALL
GASTEIGER

@<TRIPOS>ATOM
      1 C         140.7506  141.0714  160.3195 C.2     1  UNL1        0.2806
      2 O         141.4657  141.6700  159.1445 O.2     1  UNL1       -0.2668
      3 N         140.4459  139.6029  160.3433 N.am    1  UNL1       -0.2999
      4 H         139.9766  139.2100  161.1144 H       1  UNL1        0.1498
      5 C         140.2398  142.8962  166.5772 C.ar    1  UNL1       -0.0192
      6 C         139.4696  144.1586  166.3259 C.ar    1  UNL1       -0.0040
      7 C         139.1096  144.5511  164.9236 C.ar    1  UNL1        0.0059
      8 C         139.5198  143.6812  163.7726 C.ar    1  UNL1        0.0735
      9 C         139.1599  144.0736  162.3703 C.ar    1  UNL1        0.2018
     10 O         138.3896  145.3360  162.1191 O.2     1  UNL1       -0.2864
     11 C         139.5701  143.2037  161.2193 C.ar    1  UNL1        0.0843
     12 C         140.3404  141.9413  161.4705 C.ar    1  UNL1        0.2014
     13 O         140.7004  141.5489  162.8728 O.2     1  UNL1       -0.4487
     14 C         140.2901  142.4188  164.0238 C.ar    1  UNL1        0.1482
     15 C         140.6501  142.0264  165.4261 C.ar    1  UNL1        0.0333
     16 C         140.3548  143.4570  169.1114 C.3     1  UNL1        0.0050
     17 C         140.5998  142.5038  167.9794 C.3     1  UNL1        0.0265
     18 C         140.8561  138.7330  159.1922 C.3     1  UNL1        0.0747
     19 C         139.8495  138.3433  158.1507 C.3     1  UNL1        0.0369
     20 C         140.2598  137.4734  156.9995 C.3     1  UNL1        0.0741
     21 N         141.6766  136.9931  156.8901 N.3     1  UNL1       -0.2688
     22 C         142.6832  137.3828  157.9317 C.3     1  UNL1        0.0741
     23 C         142.2729  138.2527  159.0828 C.3     1  UNL1        0.0369
     24 C         142.0869  136.1233  155.7390 C.3     1  UNL1        0.0992
     25 C         142.2964  134.6527  155.9478 C.ar    1  UNL1       -0.0029
     26 C         141.4031  133.6629  155.2606 C.ar    1  UNL1        0.0004
     27 C         141.6127  132.1923  155.4694 C.ar    1  UNL1        0.0399
     28 C         142.7155  131.7116  156.3652 C.ar    1  UNL1        0.1764
     29 C         143.6088  132.7015  157.0524 C.ar    1  UNL1        0.1762
     30 C         143.3993  134.1720  156.8437 C.ar    1  UNL1        0.0373
     31 O         144.6055  131.9359  157.8713 O.3     1  UNL1       -0.4346
     32 C         144.3282  130.4729  157.6902 C.3     1  UNL1        0.4294
     33 O         143.1601  130.3343  156.7595 O.3     1  UNL1       -0.4346
@<TRIPOS>BOND
     1    16    17    1
     2    17     5    1
     3     5     6   ar
     4     6     7   ar
     5     7     8   ar
     6     8     9   ar
     7     9    10    2
     8     9    11   ar
     9    11    12   ar
    10    12     1    1
    11     1     2    2
    12     1     3   am
    13     3    18    1
    14    18    19    1
    15    19    20    1
    16    20    21    1
    17    21    24    1
    18    24    25    1
    19    25    26   ar
    20    26    27   ar
    21    27    28   ar
    22    28    29   ar
    23    29    30   ar
    24    29    31    1
    25    31    32    1
    26    32    33    1
    27    21    22    1
    28    22    23    1
    29    12    13   ar
    30    13    14   ar
    31    14    15   ar
    32    15     5   ar
    33    14     8   ar
    34    23    18    1
    35    30    25   ar
    36    33    28    1
    37     3     4    1
@<TRIPOS>MOLECULE
*****
 33 37 0 0 0
SMALL
GASTEIGER

@<TRIPOS>ATOM
      1 C         138.7817  142.3492  161.7986 C.2     1  UNL1        0.2806
      2 O         137.9618  143.5955  161.6420 O.2     1  UNL1       -0.2668
      3 N         139.4048  141.7053  160.5956 N.am    1  UNL1       -0.2999
      4 H         139.9430  140.8873  160.6984 H       1  UNL1        0.1498
      5 C         140.4672  142.2145  168.1145 C.ar    1  UNL1       -0.0192
      6 C         140.1167  140.7761  168.3555 C.ar    1  UNL1       -0.0040
      7 C         139.5692  139.9400  167.2369 C.ar    1  UNL1        0.0059
      8 C         139.3724  140.5423  165.8773 C.ar    1  UNL1        0.0735
      9 C         138.8249  139.7062  164.7587 C.ar    1  UNL1        0.2018
     10 O         138.4744  138.2678  164.9997 O.2     1  UNL1       -0.2864
     11 C         138.6280  140.3085  163.3992 C.ar    1  UNL1        0.0843
     12 C         138.9786  141.7470  163.1582 C.ar    1  UNL1        0.2014
     13 O         139.5260  142.5830  164.2767 O.2     1  UNL1       -0.4487
     14 C         139.7229  141.9807  165.6364 C.ar    1  UNL1        0.1482
     15 C         140.2704  142.8168  166.7550 C.ar    1  UNL1        0.0333
     16 C         140.1131  143.4991  170.3448 C.3     1  UNL1        0.0050
     17 C         141.0147  143.0506  169.2331 C.3     1  UNL1        0.0265
     18 C         139.2079  142.3076  159.2360 C.3     1  UNL1        0.0747
     19 C         140.0979  143.4231  158.7739 C.3     1  UNL1        0.0369
     20 C         139.9010  144.0255  157.4143 C.3     1  UNL1        0.0741
     21 N         138.8142  143.5122  156.5169 N.3     1  UNL1       -0.2688
     22 C         137.9242  142.3967  156.9790 C.3     1  UNL1        0.0741
     23 C         138.1211  141.7944  158.3386 C.3     1  UNL1        0.0369
     24 C         138.6173  144.1145  155.1573 C.3     1  UNL1        0.0992
     25 C         139.1104  145.5024  154.8733 C.ar    1  UNL1       -0.0029
     26 C         140.2731  145.7107  153.9489 C.ar    1  UNL1        0.0004
     27 C         140.7662  147.0987  153.6649 C.ar    1  UNL1        0.0399
     28 C         140.0965  148.2782  154.3054 C.ar    1  UNL1        0.1764
     29 C         138.9338  148.0698  155.2299 C.ar    1  UNL1        0.1762
     30 C         138.4407  146.6820  155.5138 C.ar    1  UNL1        0.0373
     31 O         138.4776  149.4152  155.7113 O.3     1  UNL1       -0.4346
     32 C         139.3583  150.4551  155.0844 C.3     1  UNL1        0.4294
     33 O         140.3588  149.7524  154.2155 O.3     1  UNL1       -0.4346
@<TRIPOS>BOND
     1    16    17    1
     2    17     5    1
     3     5     6   ar
     4     6     7   ar
     5     7     8   ar
     6     8     9   ar
     7     9    10    2
     8     9    11   ar
     9    11    12   ar
    10    12     1    1
    11     1     2    2
    12     1     3   am
    13     3    18    1
    14    18    19    1
    15    19    20    1
    16    20    21    1
    17    21    24    1
    18    24    25    1
    19    25    26   ar
    20    26    27   ar
    21    27    28   ar
    22    28    29   ar
    23    29    30   ar
    24    29    31    1
    25    31    32    1
    26    32    33    1
    27    21    22    1
    28    22    23    1
    29    12    13   ar
    30    13    14   ar
    31    14    15   ar
    32    15     5   ar
    33    14     8   ar
    34    23    18    1
    35    30    25   ar
    36    33    28    1
    37     3     4    1
@<TRIPOS>MOLECULE
*****
 33 37 0 0 0
SMALL
GASTEIGER

@<TRIPOS>ATOM
      1 C         144.2552  142.1957  159.6182 C.2     1  UNL1        0.2806
      2 O         143.0513  141.4242  160.0715 O.2     1  UNL1       -0.2668
      3 N         145.1043  142.9185  160.6215 N.am    1  UNL1       -0.2999
      4 H         145.8944  143.4249  160.3239 H       1  UNL1        0.1498
      5 C         148.1968  142.2812  154.4022 C.ar    1  UNL1       -0.0192
      6 C         147.1127  142.3602  153.3686 C.ar    1  UNL1       -0.0040
      7 C         145.6739  142.3906  153.7916 C.ar    1  UNL1        0.0059
      8 C         145.3192  142.3418  155.2482 C.ar    1  UNL1        0.0735
      9 C         143.8804  142.3722  155.6712 C.ar    1  UNL1        0.2018
     10 O         142.7963  142.4512  154.6376 O.2     1  UNL1       -0.2864
     11 C         143.5257  142.3234  157.1278 C.ar    1  UNL1        0.0843
     12 C         144.6099  142.2444  158.1615 C.ar    1  UNL1        0.2014
     13 O         146.0487  142.2141  157.7386 O.2     1  UNL1       -0.4487
     14 C         146.4033  142.2628  156.2818 C.ar    1  UNL1        0.1482
     15 C         147.8421  142.2325  155.8589 C.ar    1  UNL1        0.0333
     16 C         150.6064  141.3522  154.6862 C.3     1  UNL1        0.0050
     17 C         149.6356  142.2509  153.9792 C.3     1  UNL1        0.0265
     18 C         144.7496  142.8698  162.0781 C.3     1  UNL1        0.0747
     19 C         145.2954  141.7755  162.9467 C.3     1  UNL1        0.0369
     20 C         144.9407  141.7267  164.4034 C.3     1  UNL1        0.0741
     21 N         144.0402  142.7724  164.9914 N.3     1  UNL1       -0.2688
     22 C         143.4944  143.8667  164.1227 C.3     1  UNL1        0.0741
     23 C         143.8491  143.9154  162.6661 C.3     1  UNL1        0.0369
     24 C         143.6855  142.7237  166.4480 C.3     1  UNL1        0.0992
     25 C         142.5084  141.9150  166.9066 C.ar    1  UNL1       -0.0029
     26 C         141.9401  140.8476  166.0190 C.ar    1  UNL1        0.0004
     27 C         140.7629  140.0389  166.4776 C.ar    1  UNL1        0.0399
     28 C         140.1541  140.2976  167.8238 C.ar    1  UNL1        0.1764
     29 C         140.7223  141.3649  168.7115 C.ar    1  UNL1        0.1762
     30 C         141.8995  142.1736  168.2529 C.ar    1  UNL1        0.0373
     31 O         139.9172  141.3927  169.9768 O.3     1  UNL1       -0.4346
     32 C         138.8514  140.3426  169.8712 C.3     1  UNL1        0.4294
     33 O         138.9978  139.6658  168.5406 O.3     1  UNL1       -0.4346
@<TRIPOS>BOND
     1    16    17    1
     2    17     5    1
     3     5     6   ar
     4     6     7   ar
     5     7     8   ar
     6     8     9   ar
     7     9    10    2
     8     9    11   ar
     9    11    12   ar
    10    12     1    1
    11     1     2    2
    12     1     3   am
    13     3    18    1
    14    18    19    1
    15    19    20    1
    16    20    21    1
    17    21    24    1
    18    24    25    1
    19    25    26   ar
    20    26    27   ar
    21    27    28   ar
    22    28    29   ar
    23    29    30   ar
    24    29    31    1
    25    31    32    1
    26    32    33    1
    27    21    22    1
    28    22    23    1
    29    12    13   ar
    30    13    14   ar
    31    14    15   ar
    32    15     5   ar
    33    14     8   ar
    34    23    18    1
    35    30    25   ar
    36    33    28    1
    37     3     4    1
@<TRIPOS>MOLECULE
*****
 33 37 0 0 0
SMALL
GASTEIGER

@<TRIPOS>ATOM
      1 C         141.0006  137.8437  157.2299 C.2     1  UNL1        0.2806
      2 O         142.0663  138.8389  157.5819 O.2     1  UNL1       -0.2668
      3 N         139.5998  138.0363  157.7306 N.am    1  UNL1       -0.2999
      4 H         138.9003  137.3831  157.4996 H       1  UNL1        0.1498
      5 C         143.8574  132.1616  155.7127 C.ar    1  UNL1       -0.0192
      6 C         143.2668  132.0333  154.3399 C.ar    1  UNL1       -0.0040
      7 C         142.3411  133.0927  153.8196 C.ar    1  UNL1        0.0059
      8 C         142.0060  134.2804  154.6722 C.ar    1  UNL1        0.0735
      9 C         141.0802  135.3398  154.1519 C.ar    1  UNL1        0.2018
     10 O         140.4896  135.2115  152.7791 O.2     1  UNL1       -0.2864
     11 C         140.7451  136.5276  155.0045 C.ar    1  UNL1        0.0843
     12 C         141.3357  136.6560  156.3774 C.ar    1  UNL1        0.2014
     13 O         142.2615  135.5966  156.8976 O.2     1  UNL1       -0.4487
     14 C         142.5966  134.4088  156.0450 C.ar    1  UNL1        0.1482
     15 C         143.5223  133.3493  156.5652 C.ar    1  UNL1        0.0333
     16 C         145.1452  131.0713  157.6882 C.3     1  UNL1        0.0050
     17 C         144.7831  131.1022  156.2329 C.3     1  UNL1        0.0265
     18 C         139.2646  139.2240  158.5831 C.3     1  UNL1        0.0747
     19 C         139.2774  139.1017  160.0781 C.3     1  UNL1        0.0369
     20 C         138.9423  140.2895  160.9307 C.3     1  UNL1        0.0741
     21 N         138.5944  141.5996  160.2884 N.3     1  UNL1       -0.2688
     22 C         138.5817  141.7219  158.7933 C.3     1  UNL1        0.0741
     23 C         138.9168  140.5342  157.9408 C.3     1  UNL1        0.0369
     24 C         138.2593  142.7873  161.1409 C.3     1  UNL1        0.0992
     25 C         139.3305  143.4550  161.9512 C.ar    1  UNL1       -0.0029
     26 C         138.9926  144.0772  163.2736 C.ar    1  UNL1        0.0004
     27 C         140.0639  144.7449  164.0839 C.ar    1  UNL1        0.0399
     28 C         141.4730  144.7905  163.5718 C.ar    1  UNL1        0.1764
     29 C         141.8109  144.1683  162.2494 C.ar    1  UNL1        0.1762
     30 C         140.7397  143.5006  161.4391 C.ar    1  UNL1        0.0373
     31 O         143.2773  144.3677  162.0045 O.3     1  UNL1       -0.4346
     32 C         143.8457  145.1131  163.1755 C.3     1  UNL1        0.4294
     33 O         142.7306  145.3744  164.1442 O.3     1  UNL1       -0.4346
@<TRIPOS>BOND
     1    16    17    1
     2    17     5    1
     3     5     6   ar
     4     6     7   ar
     5     7     8   ar
     6     8     9   ar
     7     9    10    2
     8     9    11   ar
     9    11    12   ar
    10    12     1    1
    11     1     2    2
    12     1     3   am
    13     3    18    1
    14    18    19    1
    15    19    20    1
    16    20    21    1
    17    21    24    1
    18    24    25    1
    19    25    26   ar
    20    26    27   ar
    21    27    28   ar
    22    28    29   ar
    23    29    30   ar
    24    29    31    1
    25    31    32    1
    26    32    33    1
    27    21    22    1
    28    22    23    1
    29    12    13   ar
    30    13    14   ar
    31    14    15   ar
    32    15     5   ar
    33    14     8   ar
    34    23    18    1
    35    30    25   ar
    36    33    28    1
    37     3     4    1
@<TRIPOS>MOLECULE
*****
 33 37 0 0 0
SMALL
GASTEIGER

@<TRIPOS>ATOM
      1 C         143.8950  141.0533  158.4466 C.2     1  UNL1        0.2806
      2 O         143.5656  141.9211  159.6249 O.2     1  UNL1       -0.2668
      3 N         143.6275  139.5784  158.5032 N.am    1  UNL1       -0.2999
      4 H         143.8438  139.0088  157.7298 H       1  UNL1        0.1498
      5 C         148.5677  142.3818  154.0704 C.ar    1  UNL1       -0.0192
      6 C         147.7235  143.2354  153.1711 C.ar    1  UNL1       -0.0040
      7 C         146.2825  143.4818  153.5068 C.ar    1  UNL1        0.0059
      8 C         145.6856  142.8747  154.7417 C.ar    1  UNL1        0.0735
      9 C         144.2446  143.1212  155.0774 C.ar    1  UNL1        0.2018
     10 O         143.4004  143.9747  154.1781 O.2     1  UNL1       -0.2864
     11 C         143.6477  142.5140  156.3123 C.ar    1  UNL1        0.0843
     12 C         144.4919  141.6604  157.2117 C.ar    1  UNL1        0.2014
     13 O         145.9329  141.4140  156.8760 O.2     1  UNL1       -0.4487
     14 C         146.5298  142.0211  155.6410 C.ar    1  UNL1        0.1482
     15 C         147.9708  141.7747  155.3053 C.ar    1  UNL1        0.0333
     16 C         151.0152  141.9600  154.8330 C.3     1  UNL1        0.0050
     17 C         150.0087  142.1354  153.7348 C.3     1  UNL1        0.0265
     18 C         143.0307  138.9713  159.7381 C.3     1  UNL1        0.0747
     19 C         141.5478  138.7655  159.8312 C.3     1  UNL1        0.0369
     20 C         140.9508  138.1584  161.0662 C.3     1  UNL1        0.0741
     21 N         141.8368  137.7570  162.2081 N.3     1  UNL1       -0.2688
     22 C         143.3198  137.9628  162.1150 C.3     1  UNL1        0.0741
     23 C         143.9167  138.5699  160.8800 C.3     1  UNL1        0.0369
     24 C         141.2400  137.1499  163.4430 C.3     1  UNL1        0.0992
     25 C         140.7629  138.0332  164.5575 C.ar    1  UNL1       -0.0029
     26 C         139.2964  138.1412  164.8536 C.ar    1  UNL1        0.0004
     27 C         138.8193  139.0245  165.9682 C.ar    1  UNL1        0.0399
     28 C         139.8088  139.7997  166.7867 C.ar    1  UNL1        0.1764
     29 C         141.2753  139.6917  166.4906 C.ar    1  UNL1        0.1762
     30 C         141.7524  138.8084  165.3761 C.ar    1  UNL1        0.0373
     31 O         142.0098  140.5690  167.4606 O.3     1  UNL1       -0.4346
     32 C         140.9973  141.2192  168.3561 C.3     1  UNL1        0.4294
     33 O         139.6370  140.7438  167.9396 O.3     1  UNL1       -0.4346
@<TRIPOS>BOND
     1    16    17    1
     2    17     5    1
     3     5     6   ar
     4     6     7   ar
     5     7     8   ar
     6     8     9   ar
     7     9    10    2
     8     9    11   ar
     9    11    12   ar
    10    12     1    1
    11     1     2    2
    12     1     3   am
    13     3    18    1
    14    18    19    1
    15    19    20    1
    16    20    21    1
    17    21    24    1
    18    24    25    1
    19    25    26   ar
    20    26    27   ar
    21    27    28   ar
    22    28    29   ar
    23    29    30   ar
    24    29    31    1
    25    31    32    1
    26    32    33    1
    27    21    22    1
    28    22    23    1
    29    12    13   ar
    30    13    14   ar
    31    14    15   ar
    32    15     5   ar
    33    14     8   ar
    34    23    18    1
    35    30    25   ar
    36    33    28    1
    37     3     4    1
