@<TRIPOS>MOLECULE
*****
 27 30 0 0 0
SMALL
GASTEIGER

@<TRIPOS>ATOM
      1 C         139.4624  139.0277  164.4162 C.3     1  UNL1        0.1553
      2 C         139.9615  138.0997  163.3485 C.3     1  UNL1        0.0404
      3 C         141.3390  137.6482  163.7337 C.3     1  UNL1        0.0305
      4 C         141.6914  138.2971  165.0394 C.ar    1  UNL1       -0.0061
      5 C         142.9185  138.2217  165.8987 C.ar    1  UNL1       -0.0002
      6 C         142.9858  138.9990  167.1798 C.ar    1  UNL1        0.0340
      7 C         141.8260  139.8516  167.6016 C.ar    1  UNL1        0.1314
      8 N         140.5989  139.9269  166.7423 N.ar    1  UNL1       -0.2329
      9 C         140.5316  139.1497  165.4612 C.ar    1  UNL1        0.0834
     10 N         141.8933  140.6289  168.8828 N.pl3   1  UNL1       -0.2921
     11 C         141.2222  140.1014  170.1162 C.3     1  UNL1        0.1092
     12 C         141.2895  140.8787  171.3974 C.3     1  UNL1        0.0903
     13 N         142.0280  142.1835  171.4451 N.3     1  UNL1       -0.2947
     14 C         142.6992  142.7109  170.2116 C.3     1  UNL1        0.0886
     15 C         142.6318  141.9336  168.9305 C.3     1  UNL1        0.0899
     16 C         143.3030  142.4611  167.6970 C.3     1  UNL1        0.0229
     17 H         142.7530  142.0856  172.1558 H       1  UNL1        0.1233
     18 O         138.1284  139.7133  164.4355 O.3     1  UNL1       -0.3455
     19 C         137.8716  140.8801  163.5283 C.3     1  UNL1        0.1688
     20 C         140.3707  141.5516  162.0106 C.3     1  UNL1        0.0308
     21 C         139.8178  142.5219  163.0119 C.ar    1  UNL1       -0.0233
     22 C         140.5143  143.8280  163.2544 C.ar    1  UNL1       -0.0022
     23 C         139.9614  144.7984  164.2558 C.ar    1  UNL1        0.0293
     24 C         138.7119  144.4626  165.0147 C.ar    1  UNL1        0.1399
     25 F         138.1589  145.4329  166.0160 F       1  UNL1       -0.2042
     26 C         138.0153  143.1565  164.7722 C.ar    1  UNL1        0.0275
     27 C         138.5682  142.1862  163.7708 C.ar    1  UNL1        0.0056
@<TRIPOS>BOND
     1    20    21    1
     2    21    22   ar
     3    22    23   ar
     4    23    24   ar
     5    24    25    1
     6    24    26   ar
     7    26    27   ar
     8    27    19    1
     9    19    18    1
    10     1    18    1
    11     1     2    1
    12     2     3    1
    13     3     4    1
    14     4     5   ar
    15     5     6   ar
    16     6     7   ar
    17     7    10    1
    18    10    11    1
    19    11    12    1
    20    12    13    1
    21    13    14    1
    22    14    15    1
    23    15    16    1
    24     7     8   ar
    25     8     9   ar
    26    27    21   ar
    27     9     1    1
    28     9     4   ar
    29    15    10    1
    30    13    17    1
@<TRIPOS>MOLECULE
*****
 27 30 0 0 0
SMALL
GASTEIGER

@<TRIPOS>ATOM
      1 C         143.8206  141.8388  163.9346 C.3     1  UNL1        0.1553
      2 C         144.6085  140.9884  162.9827 C.3     1  UNL1        0.0404
      3 C         144.7195  139.6137  163.5723 C.3     1  UNL1        0.0305
      4 C         144.0002  139.6144  164.8887 C.ar    1  UNL1       -0.0061
      5 C         143.7794  138.5405  165.9123 C.ar    1  UNL1       -0.0002
      6 C         143.0030  138.8418  167.1599 C.ar    1  UNL1        0.0340
      7 C         142.4475  140.2171  167.3837 C.ar    1  UNL1        0.1314
      8 N         142.6683  141.2910  166.3601 N.ar    1  UNL1       -0.2329
      9 C         143.4447  140.9896  165.1125 C.ar    1  UNL1        0.0834
     10 N         141.6711  140.5184  168.6314 N.pl3   1  UNL1       -0.2921
     11 C         142.3877  140.9639  169.8715 C.3     1  UNL1        0.1092
     12 C         141.6113  141.2653  171.1191 C.3     1  UNL1        0.0903
     13 N         140.1183  141.1210  171.1265 N.3     1  UNL1       -0.2947
     14 C         139.4017  140.6754  169.8863 C.3     1  UNL1        0.0886
     15 C         140.1781  140.3741  168.6388 C.3     1  UNL1        0.0899
     16 C         139.4614  139.9286  167.3986 C.3     1  UNL1        0.0229
     17 H         139.7356  142.0329  171.3762 H       1  UNL1        0.1233
     18 O         143.4702  143.2845  163.7423 O.3     1  UNL1       -0.3455
     19 C         142.2492  143.6623  162.9569 C.3     1  UNL1        0.1688
     20 C         140.6769  141.1631  162.4265 C.3     1  UNL1        0.0308
     21 C         140.1005  142.2416  163.2952 C.ar    1  UNL1       -0.0233
     22 C         138.7380  142.0705  163.8987 C.ar    1  UNL1       -0.0022
     23 C         138.1616  143.1490  164.7674 C.ar    1  UNL1        0.0293
     24 C         138.9477  144.3986  165.0326 C.ar    1  UNL1        0.1399
     25 F         138.3714  145.4771  165.9013 F       1  UNL1       -0.2042
     26 C         140.3103  144.5697  164.4291 C.ar    1  UNL1        0.0275
     27 C         140.8866  143.4912  163.5604 C.ar    1  UNL1        0.0056
@<TRIPOS>BOND
     1    20    21    1
     2    21    22   ar
     3    22    23   ar
     4    23    24   ar
     5    24    25    1
     6    24    26   ar
     7    26    27   ar
     8    27    19    1
     9    19    18    1
    10     1    18    1
    11     1     2    1
    12     2     3    1
    13     3     4    1
    14     4     5   ar
    15     5     6   ar
    16     6     7   ar
    17     7    10    1
    18    10    11    1
    19    11    12    1
    20    12    13    1
    21    13    14    1
    22    14    15    1
    23    15    16    1
    24     7     8   ar
    25     8     9   ar
    26    27    21   ar
    27     9     1    1
    28     9     4   ar
    29    15    10    1
    30    13    17    1
@<TRIPOS>MOLECULE
*****
 27 30 0 0 0
SMALL
GASTEIGER

@<TRIPOS>ATOM
      1 C         143.8431  141.9687  163.9652 C.3     1  UNL1        0.1553
      2 C         143.7528  142.5986  162.6069 C.3     1  UNL1        0.0404
      3 C         142.4575  143.3512  162.5302 C.3     1  UNL1        0.0305
      4 C         141.7474  143.1865  163.8412 C.ar    1  UNL1       -0.0061
      5 C         140.4316  143.7042  164.3418 C.ar    1  UNL1       -0.0002
      6 C         139.9722  143.3674  165.7294 C.ar    1  UNL1        0.0340
      7 C         140.8285  142.5130  166.6163 C.ar    1  UNL1        0.1314
      8 N         142.1443  141.9953  166.1156 N.ar    1  UNL1       -0.2329
      9 C         142.6037  142.3321  164.7281 C.ar    1  UNL1        0.0834
     10 N         140.3690  142.1762  168.0040 N.pl3   1  UNL1       -0.2921
     11 C         140.4992  143.1882  169.1034 C.3     1  UNL1        0.1092
     12 C         140.0397  142.8515  170.4911 C.3     1  UNL1        0.0903
     13 N         139.4500  141.5027  170.7792 N.3     1  UNL1       -0.2947
     14 C         139.3199  140.4906  169.6797 C.3     1  UNL1        0.0886
     15 C         139.7794  140.8274  168.2921 C.3     1  UNL1        0.0899
     16 C         139.6493  139.8153  167.1926 C.3     1  UNL1        0.0229
     17 H         138.5112  141.6635  171.1440 H       1  UNL1        0.1233
     18 O         144.9742  141.1238  164.4719 O.3     1  UNL1       -0.3455
     19 C         145.0028  139.6534  164.1764 C.3     1  UNL1        0.1688
     20 C         143.3402  138.6504  166.4633 C.3     1  UNL1        0.0308
     21 C         142.8925  138.4160  165.0510 C.ar    1  UNL1       -0.0233
     22 C         141.6134  137.6800  164.7821 C.ar    1  UNL1       -0.0022
     23 C         141.1656  137.4455  163.3699 C.ar    1  UNL1        0.0293
     24 C         141.9968  137.9470  162.2264 C.ar    1  UNL1        0.1399
     25 F         141.5491  137.7125  160.8141 F       1  UNL1       -0.2042
     26 C         143.2759  138.6829  162.4953 C.ar    1  UNL1        0.0275
     27 C         143.7237  138.9174  163.9075 C.ar    1  UNL1        0.0056
@<TRIPOS>BOND
     1    20    21    1
     2    21    22   ar
     3    22    23   ar
     4    23    24   ar
     5    24    25    1
     6    24    26   ar
     7    26    27   ar
     8    27    19    1
     9    19    18    1
    10     1    18    1
    11     1     2    1
    12     2     3    1
    13     3     4    1
    14     4     5   ar
    15     5     6   ar
    16     6     7   ar
    17     7    10    1
    18    10    11    1
    19    11    12    1
    20    12    13    1
    21    13    14    1
    22    14    15    1
    23    15    16    1
    24     7     8   ar
    25     8     9   ar
    26    27    21   ar
    27     9     1    1
    28     9     4   ar
    29    15    10    1
    30    13    17    1
@<TRIPOS>MOLECULE
*****
 27 30 0 0 0
SMALL
GASTEIGER

@<TRIPOS>ATOM
      1 C         138.4452  143.4416  163.8897 C.3     1  UNL1        0.1553
      2 C         137.5971  142.6283  162.9574 C.3     1  UNL1        0.0404
      3 C         137.5927  141.2119  163.4512 C.3     1  UNL1        0.0305
      4 C         138.4382  141.1498  164.6887 C.ar    1  UNL1       -0.0061
      5 C         138.7963  140.0166  165.6038 C.ar    1  UNL1       -0.0002
      6 C         139.6813  140.2613  166.7899 C.ar    1  UNL1        0.0340
      7 C         140.2082  141.6393  167.0609 C.ar    1  UNL1        0.1314
      8 N         139.8500  142.7726  166.1458 N.ar    1  UNL1       -0.2329
      9 C         138.9650  142.5279  164.9597 C.ar    1  UNL1        0.0834
     10 N         141.0932  141.8841  168.2470 N.pl3   1  UNL1       -0.2921
     11 C         140.5167  141.8557  169.6315 C.3     1  UNL1        0.1092
     12 C         141.4018  142.1004  170.8177 C.3     1  UNL1        0.0903
     13 N         142.8633  142.3735  170.6192 N.3     1  UNL1       -0.2947
     14 C         143.4398  142.4018  169.2347 C.3     1  UNL1        0.0886
     15 C         142.5548  142.1571  168.0486 C.3     1  UNL1        0.0899
     16 C         143.1312  142.1855  166.6640 C.3     1  UNL1        0.0229
     17 H         143.3700  141.6536  171.1345 H       1  UNL1        0.1233
     18 O         138.7245  144.9107  163.7726 O.3     1  UNL1       -0.3455
     19 C         139.7174  145.4073  162.7637 C.3     1  UNL1        0.1688
     20 C         140.6681  143.4798  160.6708 C.3     1  UNL1        0.0308
     21 C         141.6061  143.9420  161.7462 C.ar    1  UNL1       -0.0233
     22 C         143.0194  143.4405  161.7751 C.ar    1  UNL1       -0.0022
     23 C         143.9574  143.9027  162.8505 C.ar    1  UNL1        0.0293
     24 C         143.4821  144.8665  163.8970 C.ar    1  UNL1        0.1399
     25 F         144.4201  145.3287  164.9724 F       1  UNL1       -0.2042
     26 C         142.0688  145.3680  163.8681 C.ar    1  UNL1        0.0275
     27 C         141.1308  144.9058  162.7927 C.ar    1  UNL1        0.0056
@<TRIPOS>BOND
     1    20    21    1
     2    21    22   ar
     3    22    23   ar
     4    23    24   ar
     5    24    25    1
     6    24    26   ar
     7    26    27   ar
     8    27    19    1
     9    19    18    1
    10     1    18    1
    11     1     2    1
    12     2     3    1
    13     3     4    1
    14     4     5   ar
    15     5     6   ar
    16     6     7   ar
    17     7    10    1
    18    10    11    1
    19    11    12    1
    20    12    13    1
    21    13    14    1
    22    14    15    1
    23    15    16    1
    24     7     8   ar
    25     8     9   ar
    26    27    21   ar
    27     9     1    1
    28     9     4   ar
    29    15    10    1
    30    13    17    1
@<TRIPOS>MOLECULE
*****
 27 30 0 0 0
SMALL
GASTEIGER

@<TRIPOS>ATOM
      1 C         142.0739  138.3043  164.1149 C.3     1  UNL1        0.1553
      2 C         141.2859  137.4494  163.1671 C.3     1  UNL1        0.0404
      3 C         139.8682  137.4023  163.6548 C.3     1  UNL1        0.0305
      4 C         139.7799  138.2280  164.9039 C.ar    1  UNL1       -0.0061
      5 C         138.6344  138.5443  165.8191 C.ar    1  UNL1       -0.0002
      6 C         138.8520  139.4180  167.0187 C.ar    1  UNL1        0.0340
      7 C         140.2152  139.9755  167.3032 C.ar    1  UNL1        0.1314
      8 N         141.3608  139.6592  166.3879 N.ar    1  UNL1       -0.2329
      9 C         141.1431  138.7855  165.1883 C.ar    1  UNL1        0.0834
     10 N         140.4329  140.8493  168.5028 N.pl3   1  UNL1       -0.2921
     11 C         140.5705  140.2339  169.8638 C.3     1  UNL1        0.1092
     12 C         140.7882  141.1077  171.0635 C.3     1  UNL1        0.0903
     13 N         140.8681  142.5969  170.9021 N.3     1  UNL1       -0.2947
     14 C         140.7304  143.2122  169.5411 C.3     1  UNL1        0.0886
     15 C         140.5128  142.3385  168.3415 C.3     1  UNL1        0.0899
     16 C         140.3751  142.9538  166.9804 C.3     1  UNL1        0.0229
     17 H         141.7773  142.8840  171.2645 H       1  UNL1        0.1233
     18 O         143.5359  138.6222  164.0081 O.3     1  UNL1       -0.3455
     19 C         143.9932  139.7743  163.1633 C.3     1  UNL1        0.1688
     20 C         141.5892  141.1739  162.0400 C.3     1  UNL1        0.0308
     21 C         142.4791  141.8806  163.0192 C.ar    1  UNL1       -0.0233
     22 C         142.1669  143.2871  163.4367 C.ar    1  UNL1       -0.0022
     23 C         143.0567  143.9938  164.4159 C.ar    1  UNL1        0.0293
     24 C         144.2587  143.2940  164.9776 C.ar    1  UNL1        0.1399
     25 F         145.1485  144.0007  165.9568 F       1  UNL1       -0.2042
     26 C         144.5708  141.8875  164.5601 C.ar    1  UNL1        0.0275
     27 C         143.6810  141.1808  163.5809 C.ar    1  UNL1        0.0056
@<TRIPOS>BOND
     1    20    21    1
     2    21    22   ar
     3    22    23   ar
     4    23    24   ar
     5    24    25    1
     6    24    26   ar
     7    26    27   ar
     8    27    19    1
     9    19    18    1
    10     1    18    1
    11     1     2    1
    12     2     3    1
    13     3     4    1
    14     4     5   ar
    15     5     6   ar
    16     6     7   ar
    17     7    10    1
    18    10    11    1
    19    11    12    1
    20    12    13    1
    21    13    14    1
    22    14    15    1
    23    15    16    1
    24     7     8   ar
    25     8     9   ar
    26    27    21   ar
    27     9     1    1
    28     9     4   ar
    29    15    10    1
    30    13    17    1
@<TRIPOS>MOLECULE
*****
 27 30 0 0 0
SMALL
GASTEIGER

@<TRIPOS>ATOM
      1 C         139.4764  142.2478  163.9903 C.3     1  UNL1        0.1553
      2 C         138.4880  141.6788  163.0161 C.3     1  UNL1        0.0404
      3 C         137.8318  140.4938  163.6605 C.3     1  UNL1        0.0305
      4 C         138.4147  140.3305  165.0329 C.ar    1  UNL1       -0.0061
      5 C         138.1512  139.3347  166.1233 C.ar    1  UNL1       -0.0002
      6 C         138.9042  139.4230  167.4175 C.ar    1  UNL1        0.0340
      7 C         139.9207  140.5071  167.6214 C.ar    1  UNL1        0.1314
      8 N         140.1842  141.5029  166.5310 N.ar    1  UNL1       -0.2329
      9 C         139.4312  141.4146  165.2367 C.ar    1  UNL1        0.0834
     10 N         140.6738  140.5954  168.9157 N.pl3   1  UNL1       -0.2921
     11 C         140.0521  141.2738  170.1003 C.3     1  UNL1        0.1092
     12 C         140.8052  141.3620  171.3946 C.3     1  UNL1        0.0903
     13 N         142.1798  140.7719  171.5043 N.3     1  UNL1       -0.2947
     14 C         142.8015  140.0935  170.3196 C.3     1  UNL1        0.0886
     15 C         142.0484  140.0053  169.0253 C.3     1  UNL1        0.0899
     16 C         142.6701  139.3269  167.8407 C.3     1  UNL1        0.0229
     17 H         142.1449  140.0814  172.2542 H       1  UNL1        0.1233
     18 O         140.3558  143.4408  163.7587 O.3     1  UNL1       -0.3455
     19 C         141.5427  143.3321  162.8478 C.3     1  UNL1        0.1688
     20 C         143.8588  144.6953  164.1810 C.3     1  UNL1        0.0308
     21 C         143.8991  143.2160  163.9359 C.ar    1  UNL1       -0.0233
     22 C         145.0974  142.4183  164.3574 C.ar    1  UNL1       -0.0022
     23 C         145.1377  140.9390  164.1123 C.ar    1  UNL1        0.0293
     24 C         143.9797  140.2574  163.4457 C.ar    1  UNL1        0.1399
     25 F         144.0199  138.7781  163.2007 F       1  UNL1       -0.2042
     26 C         142.7813  141.0551  163.0243 C.ar    1  UNL1        0.0275
     27 C         142.7411  142.5344  163.2693 C.ar    1  UNL1        0.0056
@<TRIPOS>BOND
     1    20    21    1
     2    21    22   ar
     3    22    23   ar
     4    23    24   ar
     5    24    25    1
     6    24    26   ar
     7    26    27   ar
     8    27    19    1
     9    19    18    1
    10     1    18    1
    11     1     2    1
    12     2     3    1
    13     3     4    1
    14     4     5   ar
    15     5     6   ar
    16     6     7   ar
    17     7    10    1
    18    10    11    1
    19    11    12    1
    20    12    13    1
    21    13    14    1
    22    14    15    1
    23    15    16    1
    24     7     8   ar
    25     8     9   ar
    26    27    21   ar
    27     9     1    1
    28     9     4   ar
    29    15    10    1
    30    13    17    1
@<TRIPOS>MOLECULE
*****
 27 30 0 0 0
SMALL
GASTEIGER

@<TRIPOS>ATOM
      1 C         139.6956  140.5706  167.0677 C.3     1  UNL1        0.1553
      2 C         138.7891  139.4151  167.3728 C.3     1  UNL1        0.0404
      3 C         137.9666  139.1358  166.1499 C.3     1  UNL1        0.0305
      4 C         138.3648  140.1187  165.0890 C.ar    1  UNL1       -0.0061
      5 C         137.8923  140.3208  163.6798 C.ar    1  UNL1       -0.0002
      6 C         138.4885  141.4096  162.8378 C.ar    1  UNL1        0.0340
      7 C         139.5571  142.2964  163.4051 C.ar    1  UNL1        0.1314
      8 N         140.0295  142.0943  164.8143 N.ar    1  UNL1       -0.2329
      9 C         139.4334  141.0054  165.6562 C.ar    1  UNL1        0.0834
     10 N         140.1533  143.3853  162.5630 N.pl3   1  UNL1       -0.2921
     11 C         139.5400  144.7541  162.5629 C.3     1  UNL1        0.1092
     12 C         140.1362  145.8430  161.7208 C.3     1  UNL1        0.0903
     13 N         141.3456  145.5630  160.8789 N.3     1  UNL1       -0.2947
     14 C         141.9589  144.1940  160.8791 C.3     1  UNL1        0.0886
     15 C         141.3627  143.1052  161.7211 C.3     1  UNL1        0.0899
     16 C         141.9760  141.7362  161.7213 C.3     1  UNL1        0.0229
     17 H         142.0723  146.2112  161.1826 H       1  UNL1        0.1233
     18 O         140.6899  141.1836  168.0088 O.3     1  UNL1       -0.3455
     19 C         142.1374  140.7988  167.9257 C.3     1  UNL1        0.1688
     20 C         142.8273  138.7983  165.7992 C.3     1  UNL1        0.0308
     21 C         143.3025  140.2159  165.6780 C.ar    1  UNL1       -0.0233
     22 C         144.1227  140.6332  164.4934 C.ar    1  UNL1       -0.0022
     23 C         144.5980  142.0508  164.3722 C.ar    1  UNL1        0.0293
     24 C         144.2531  143.0510  165.4354 C.ar    1  UNL1        0.1399
     25 F         144.7283  144.4686  165.3142 F       1  UNL1       -0.2042
     26 C         143.4328  142.6337  166.6200 C.ar    1  UNL1        0.0275
     27 C         142.9576  141.2161  166.7412 C.ar    1  UNL1        0.0056
@<TRIPOS>BOND
     1    20    21    1
     2    21    22   ar
     3    22    23   ar
     4    23    24   ar
     5    24    25    1
     6    24    26   ar
     7    26    27   ar
     8    27    19    1
     9    19    18    1
    10     1    18    1
    11     1     2    1
    12     2     3    1
    13     3     4    1
    14     4     5   ar
    15     5     6   ar
    16     6     7   ar
    17     7    10    1
    18    10    11    1
    19    11    12    1
    20    12    13    1
    21    13    14    1
    22    14    15    1
    23    15    16    1
    24     7     8   ar
    25     8     9   ar
    26    27    21   ar
    27     9     1    1
    28     9     4   ar
    29    15    10    1
    30    13    17    1
@<TRIPOS>MOLECULE
*****
 27 30 0 0 0
SMALL
GASTEIGER

@<TRIPOS>ATOM
      1 C         139.7230  142.4688  163.9701 C.3     1  UNL1        0.1553
      2 C         140.2874  143.0328  162.6999 C.3     1  UNL1        0.0404
      3 C         141.7385  143.3341  162.9312 C.3     1  UNL1        0.0305
      4 C         142.0709  142.9564  164.3443 C.ar    1  UNL1       -0.0061
      5 C         143.3469  143.0303  165.1293 C.ar    1  UNL1       -0.0002
      6 C         143.3772  142.5694  166.5564 C.ar    1  UNL1        0.0340
      7 C         142.1315  142.0346  167.1985 C.ar    1  UNL1        0.1314
      8 N         140.8555  141.9607  166.4134 N.ar    1  UNL1       -0.2329
      9 C         140.8252  142.4216  164.9864 C.ar    1  UNL1        0.0834
     10 N         142.1619  141.5737  168.6256 N.pl3   1  UNL1       -0.2921
     11 C         141.8670  142.5417  169.7328 C.3     1  UNL1        0.1092
     12 C         141.8973  142.0808  171.1600 C.3     1  UNL1        0.0903
     13 N         142.2226  140.6519  171.4799 N.3     1  UNL1       -0.2947
     14 C         142.5175  139.6838  170.3726 C.3     1  UNL1        0.0886
     15 C         142.4871  140.1448  168.9455 C.3     1  UNL1        0.0899
     16 C         142.7820  139.1767  167.8382 C.3     1  UNL1        0.0229
     17 H         141.4259  140.2767  171.9946 H       1  UNL1        0.1233
     18 O         138.3052  142.0293  164.1860 O.3     1  UNL1       -0.3455
     19 C         137.8593  140.6766  163.7152 C.3     1  UNL1        0.1688
     20 C         138.3069  139.0809  166.2158 C.3     1  UNL1        0.0308
     21 C         139.0486  138.7308  164.9599 C.ar    1  UNL1       -0.0233
     22 C         140.0140  137.5828  164.9542 C.ar    1  UNL1       -0.0022
     23 C         140.7557  137.2327  163.6983 C.ar    1  UNL1        0.0293
     24 C         140.5319  138.0305  162.4480 C.ar    1  UNL1        0.1399
     25 F         141.2735  137.6804  161.1920 F       1  UNL1       -0.2042
     26 C         139.5664  139.1785  162.4536 C.ar    1  UNL1        0.0275
     27 C         138.8248  139.5286  163.7096 C.ar    1  UNL1        0.0056
@<TRIPOS>BOND
     1    20    21    1
     2    21    22   ar
     3    22    23   ar
     4    23    24   ar
     5    24    25    1
     6    24    26   ar
     7    26    27   ar
     8    27    19    1
     9    19    18    1
    10     1    18    1
    11     1     2    1
    12     2     3    1
    13     3     4    1
    14     4     5   ar
    15     5     6   ar
    16     6     7   ar
    17     7    10    1
    18    10    11    1
    19    11    12    1
    20    12    13    1
    21    13    14    1
    22    14    15    1
    23    15    16    1
    24     7     8   ar
    25     8     9   ar
    26    27    21   ar
    27     9     1    1
    28     9     4   ar
    29    15    10    1
    30    13    17    1
@<TRIPOS>MOLECULE
*****
 27 30 0 0 0
SMALL
GASTEIGER

@<TRIPOS>ATOM
      1 C         144.0018  141.7533  164.0171 C.3     1  UNL1        0.1553
      2 C         144.7448  140.8761  163.0536 C.3     1  UNL1        0.0404
      3 C         144.7846  139.4897  163.6250 C.3     1  UNL1        0.0305
      4 C         144.0663  139.5102  164.9416 C.ar    1  UNL1       -0.0061
      5 C         143.7903  138.4357  165.9512 C.ar    1  UNL1       -0.0002
      6 C         143.0304  138.7602  167.2030 C.ar    1  UNL1        0.0340
      7 C         142.5466  140.1592  167.4454 C.ar    1  UNL1        0.1314
      8 N         142.8226  141.2337  166.4359 N.ar    1  UNL1       -0.2329
      9 C         143.5825  140.9092  165.1840 C.ar    1  UNL1        0.0834
     10 N         141.7867  140.4836  168.6974 N.pl3   1  UNL1       -0.2921
     11 C         142.5221  140.9244  169.9281 C.3     1  UNL1        0.1092
     12 C         141.7622  141.2488  171.1801 C.3     1  UNL1        0.0903
     13 N         140.2669  141.1325  171.2012 N.3     1  UNL1       -0.2947
     14 C         139.5314  140.6918  169.9704 C.3     1  UNL1        0.0886
     15 C         140.2913  140.3673  168.7185 C.3     1  UNL1        0.0899
     16 C         139.5559  139.9266  167.4876 C.3     1  UNL1        0.0229
     17 H         139.9034  142.0532  171.4476 H       1  UNL1        0.1233
     18 O         143.7265  143.2177  163.8441 O.3     1  UNL1       -0.3455
     19 C         142.6628  143.8831  164.6664 C.3     1  UNL1        0.1688
     20 C         140.0610  143.3026  166.0423 C.3     1  UNL1        0.0308
     21 C         140.0681  144.0038  164.7164 C.ar    1  UNL1       -0.0233
     22 C         138.7743  144.4149  164.0784 C.ar    1  UNL1       -0.0022
     23 C         138.7814  145.1161  162.7524 C.ar    1  UNL1        0.0293
     24 C         140.0823  145.4064  162.0644 C.ar    1  UNL1        0.1399
     25 F         140.0894  146.1077  160.7385 F       1  UNL1       -0.2042
     26 C         141.3761  144.9954  162.7024 C.ar    1  UNL1        0.0275
     27 C         141.3690  144.2941  164.0284 C.ar    1  UNL1        0.0056
@<TRIPOS>BOND
     1    20    21    1
     2    21    22   ar
     3    22    23   ar
     4    23    24   ar
     5    24    25    1
     6    24    26   ar
     7    26    27   ar
     8    27    19    1
     9    19    18    1
    10     1    18    1
    11     1     2    1
    12     2     3    1
    13     3     4    1
    14     4     5   ar
    15     5     6   ar
    16     6     7   ar
    17     7    10    1
    18    10    11    1
    19    11    12    1
    20    12    13    1
    21    13    14    1
    22    14    15    1
    23    15    16    1
    24     7     8   ar
    25     8     9   ar
    26    27    21   ar
    27     9     1    1
    28     9     4   ar
    29    15    10    1
    30    13    17    1
