@<TRIPOS>MOLECULE
*****
 24 26 0 0 0
SMALL
GASTEIGER

@<TRIPOS>ATOM
      1 C         139.2280  139.6028  164.4997 C.3     1  UNL1        0.1471
      2 O         140.0913  138.6168  165.2296 O.3     1  UNL1       -0.3812
      3 C         138.2638  140.3357  163.6148 C.3     1  UNL1        0.0584
      4 C         138.3315  141.7933  163.9624 C.ar    1  UNL1       -0.0202
      5 C         137.6071  142.9893  163.4196 C.ar    1  UNL1       -0.0044
      6 C         137.8887  144.3532  163.9766 C.ar    1  UNL1       -0.0003
      7 C         138.8948  144.5212  165.0764 C.ar    1  UNL1       -0.0002
      8 C         139.6193  143.3252  165.6192 C.ar    1  UNL1       -0.0011
      9 C         139.3376  141.9612  165.0622 C.ar    1  UNL1        0.0157
     10 C         139.8917  140.6074  165.3943 C.3     1  UNL1        0.2137
     11 H         139.9258  137.7252  164.8853 H       1  UNL1        0.2105
     12 C         138.7448  138.3920  163.7578 C.3     1  UNL1        0.1001
     13 C         140.3360  137.9941  161.7429 C.3     1  UNL1        0.0859
     14 N         139.7227  137.5203  163.0272 N.3     1  UNL1       -0.2942
     15 H         140.4924  137.3373  163.6711 H       1  UNL1        0.1234
     16 O         140.9276  140.3105  166.4377 O.3     1  UNL1       -0.4703
     17 C         140.7630  140.8420  167.8306 C.ar    1  UNL1        0.1622
     18 C         141.7685  141.8043  168.3900 C.ar    1  UNL1        0.0144
     19 C         142.9387  142.2351  167.5563 C.3     1  UNL1        0.0343
     20 C         141.6038  142.3358  169.7829 C.ar    1  UNL1       -0.0011
     21 C         140.4336  141.9050  170.6166 C.ar    1  UNL1        0.0022
     22 C         139.4280  140.9427  170.0574 C.ar    1  UNL1        0.0328
     23 C         139.5927  140.4112  168.6644 C.ar    1  UNL1        0.1735
     24 F         138.5468  139.5835  168.4559 F       1  UNL1       -0.2010
@<TRIPOS>BOND
     1    13    14    1
     2    14    12    1
     3    12     1    1
     4     1     2    1
     5     1     3    1
     6     3     4    1
     7     4     5   ar
     8     5     6   ar
     9     6     7   ar
    10     7     8   ar
    11     8     9   ar
    12     9    10    1
    13    10    16    1
    14    16    17    1
    15    17    18   ar
    16    18    19    1
    17    18    20   ar
    18    20    21   ar
    19    21    22   ar
    20    22    23   ar
    21    23    24    1
    22    10     1    1
    23    23    17   ar
    24     9     4   ar
    25    14    15    1
    26     2    11    1
@<TRIPOS>MOLECULE
*****
 24 26 0 0 0
SMALL
GASTEIGER

@<TRIPOS>ATOM
      1 C         139.3068  142.5996  164.7316 C.3     1  UNL1        0.1471
      2 O         138.7047  141.5034  165.5599 O.3     1  UNL1       -0.3812
      3 C         139.6162  143.7308  163.7964 C.3     1  UNL1        0.0584
      4 C         141.0815  144.0330  163.9032 C.ar    1  UNL1       -0.0202
      5 C         141.9499  145.0461  163.2181 C.ar    1  UNL1       -0.0044
      6 C         143.4146  145.1148  163.5342 C.ar    1  UNL1       -0.0003
      7 C         144.0109  144.1703  164.5354 C.ar    1  UNL1       -0.0002
      8 C         143.1425  143.1572  165.2205 C.ar    1  UNL1       -0.0011
      9 C         141.6778  143.0885  164.9044 C.ar    1  UNL1        0.0157
     10 C         140.5809  142.2026  165.4164 C.3     1  UNL1        0.2137
     11 H         137.7553  141.4402  165.3717 H       1  UNL1        0.2105
     12 C         137.9068  142.7674  164.2200 C.3     1  UNL1        0.1001
     13 C         137.5906  140.9925  162.3491 C.3     1  UNL1        0.0859
     14 N         137.1672  141.5893  163.6585 N.3     1  UNL1       -0.2942
     15 H         137.2267  140.8456  164.3540 H       1  UNL1        0.1234
     16 O         140.7318  141.1114  166.4344 O.3     1  UNL1       -0.4703
     17 C         141.3512  141.4097  167.7675 C.ar    1  UNL1        0.1622
     18 C         142.3812  140.4820  168.3406 C.ar    1  UNL1        0.0144
     19 C         142.7919  139.2558  167.5804 C.3     1  UNL1        0.0343
     20 C         143.0006  140.7804  169.6737 C.ar    1  UNL1       -0.0011
     21 C         142.5900  142.0065  170.4339 C.ar    1  UNL1        0.0022
     22 C         141.5599  142.9343  169.8610 C.ar    1  UNL1        0.0328
     23 C         140.9406  142.6359  168.5278 C.ar    1  UNL1        0.1735
     24 F         140.0673  143.6378  168.2906 F       1  UNL1       -0.2010
@<TRIPOS>BOND
     1    13    14    1
     2    14    12    1
     3    12     1    1
     4     1     2    1
     5     1     3    1
     6     3     4    1
     7     4     5   ar
     8     5     6   ar
     9     6     7   ar
    10     7     8   ar
    11     8     9   ar
    12     9    10    1
    13    10    16    1
    14    16    17    1
    15    17    18   ar
    16    18    19    1
    17    18    20   ar
    18    20    21   ar
    19    21    22   ar
    20    22    23   ar
    21    23    24    1
    22    10     1    1
    23    23    17   ar
    24     9     4   ar
    25    14    15    1
    26     2    11    1
@<TRIPOS>MOLECULE
*****
 24 26 0 0 0
SMALL
GASTEIGER

@<TRIPOS>ATOM
      1 C         142.4565  143.6492  164.0813 C.3     1  UNL1        0.1471
      2 O         141.2652  144.4228  164.5634 O.3     1  UNL1       -0.3812
      3 C         143.7022  143.1310  163.4258 C.3     1  UNL1        0.0584
      4 C         143.9624  141.7503  163.9509 C.ar    1  UNL1       -0.0202
      5 C         145.0471  140.7550  163.6633 C.ar    1  UNL1       -0.0044
      6 C         145.0469  139.4244  164.3558 C.ar    1  UNL1       -0.0003
      7 C         143.9620  139.0892  165.3359 C.ar    1  UNL1       -0.0002
      8 C         142.8774  140.0845  165.6236 C.ar    1  UNL1       -0.0011
      9 C         142.8776  141.4151  164.9311 C.ar    1  UNL1        0.0157
     10 C         141.9468  142.5886  165.0116 C.3     1  UNL1        0.2137
     11 H         141.2445  145.2893  164.1279 H       1  UNL1        0.2105
     12 C         142.7171  144.8714  163.2518 C.3     1  UNL1        0.1001
     13 C         141.3667  144.7717  161.0344 C.3     1  UNL1        0.0859
     14 N         142.6823  144.7833  161.7547 N.3     1  UNL1       -0.2942
     15 H         143.2050  145.5843  161.4004 H       1  UNL1        0.1234
     16 O         140.7216  142.6848  165.8716 O.3     1  UNL1       -0.4703
     17 C         139.8810  141.4672  166.1184 C.ar    1  UNL1        0.1622
     18 C         139.8493  140.8413  167.4812 C.ar    1  UNL1        0.0144
     19 C         140.6581  141.4330  168.5973 C.3     1  UNL1        0.0343
     20 C         139.0087  139.6238  167.7279 C.ar    1  UNL1       -0.0011
     21 C         138.1999  139.0320  166.6119 C.ar    1  UNL1        0.0022
     22 C         138.2316  139.6578  165.2490 C.ar    1  UNL1        0.0328
     23 C         139.0721  140.8754  165.0023 C.ar    1  UNL1        0.1735
     24 F         138.8925  141.1945  163.7029 F       1  UNL1       -0.2010
@<TRIPOS>BOND
     1    13    14    1
     2    14    12    1
     3    12     1    1
     4     1     2    1
     5     1     3    1
     6     3     4    1
     7     4     5   ar
     8     5     6   ar
     9     6     7   ar
    10     7     8   ar
    11     8     9   ar
    12     9    10    1
    13    10    16    1
    14    16    17    1
    15    17    18   ar
    16    18    19    1
    17    18    20   ar
    18    20    21   ar
    19    21    22   ar
    20    22    23   ar
    21    23    24    1
    22    10     1    1
    23    23    17   ar
    24     9     4   ar
    25    14    15    1
    26     2    11    1
@<TRIPOS>MOLECULE
*****
 24 26 0 0 0
SMALL
GASTEIGER

@<TRIPOS>ATOM
      1 C         139.3513  139.8144  165.2981 C.3     1  UNL1        0.1471
      2 O         139.4203  140.0298  163.8153 O.3     1  UNL1       -0.3812
      3 C         139.1807  139.3132  166.7016 C.3     1  UNL1        0.0584
      4 C         139.5754  140.4159  167.6388 C.ar    1  UNL1       -0.0202
      5 C         139.6110  140.4958  169.1362 C.ar    1  UNL1       -0.0044
      6 C         140.0610  141.7584  169.8094 C.ar    1  UNL1       -0.0003
      7 C         140.4755  142.9411  168.9852 C.ar    1  UNL1       -0.0002
      8 C         140.4400  142.8612  167.4877 C.ar    1  UNL1       -0.0011
      9 C         139.9899  141.5986  166.8146 C.ar    1  UNL1        0.0157
     10 C         139.8514  141.2269  165.3680 C.3     1  UNL1        0.2137
     11 H         139.1330  139.2241  163.3578 H       1  UNL1        0.2105
     12 C         138.8655  138.4470  164.9184 C.3     1  UNL1        0.1001
     13 C         141.0560  137.1268  164.4613 C.3     1  UNL1        0.0859
     14 N         139.6957  137.5790  164.0198 N.3     1  UNL1       -0.2942
     15 H         139.1500  136.7366  163.8379 H       1  UNL1        0.1234
     16 O         140.1590  142.1122  164.1968 O.3     1  UNL1       -0.4703
     17 C         141.3919  142.9664  164.2058 C.ar    1  UNL1        0.1622
     18 C         141.2985  144.4218  163.8547 C.ar    1  UNL1        0.0144
     19 C         139.9723  145.0229  163.4948 C.3     1  UNL1        0.0343
     20 C         142.5315  145.2760  163.8637 C.ar    1  UNL1       -0.0011
     21 C         143.8578  144.6750  164.2236 C.ar    1  UNL1        0.0022
     22 C         143.9512  143.2196  164.5747 C.ar    1  UNL1        0.0328
     23 C         142.7183  142.3654  164.5657 C.ar    1  UNL1        0.1735
     24 F         143.1215  141.1262  164.9186 F       1  UNL1       -0.2010
@<TRIPOS>BOND
     1    13    14    1
     2    14    12    1
     3    12     1    1
     4     1     2    1
     5     1     3    1
     6     3     4    1
     7     4     5   ar
     8     5     6   ar
     9     6     7   ar
    10     7     8   ar
    11     8     9   ar
    12     9    10    1
    13    10    16    1
    14    16    17    1
    15    17    18   ar
    16    18    19    1
    17    18    20   ar
    18    20    21   ar
    19    21    22   ar
    20    22    23   ar
    21    23    24    1
    22    10     1    1
    23    23    17   ar
    24     9     4   ar
    25    14    15    1
    26     2    11    1
@<TRIPOS>MOLECULE
*****
 24 26 0 0 0
SMALL
GASTEIGER

@<TRIPOS>ATOM
      1 C         142.6953  139.5865  164.6942 C.3     1  UNL1        0.1471
      2 O         142.2638  139.8806  163.2881 O.3     1  UNL1       -0.3812
      3 C         143.3943  139.2016  165.9643 C.3     1  UNL1        0.0584
      4 C         142.4564  139.4595  167.1062 C.ar    1  UNL1       -0.0202
      5 C         142.6015  139.2691  168.5869 C.ar    1  UNL1       -0.0044
      6 C         141.4679  139.6229  169.5032 C.ar    1  UNL1       -0.0003
      7 C         140.1892  140.1673  168.9388 C.ar    1  UNL1       -0.0002
      8 C         140.0440  140.3577  167.4580 C.ar    1  UNL1       -0.0011
      9 C         141.1777  140.0038  166.5417 C.ar    1  UNL1        0.0157
     10 C         141.3253  140.0823  165.0511 C.3     1  UNL1        0.2137
     11 H         142.9830  139.6589  162.6761 H       1  UNL1        0.2105
     12 C         143.9751  139.1521  164.0434 C.3     1  UNL1        0.1001
     13 C         145.5341  141.2009  163.6946 C.3     1  UNL1        0.0859
     14 N         145.2530  139.8780  164.3433 N.3     1  UNL1       -0.2942
     15 H         145.2735  140.0340  165.3511 H       1  UNL1        0.1234
     16 O         140.2855  140.5708  164.0866 O.3     1  UNL1       -0.4703
     17 C         139.7078  141.9465  164.2398 C.ar    1  UNL1        0.1622
     18 C         138.2753  142.2032  163.8764 C.ar    1  UNL1        0.0144
     19 C         137.4204  141.0841  163.3599 C.3     1  UNL1        0.0343
     20 C         137.6976  143.5790  164.0296 C.ar    1  UNL1       -0.0011
     21 C         138.5524  144.6981  164.5461 C.ar    1  UNL1        0.0022
     22 C         139.9849  144.4415  164.9095 C.ar    1  UNL1        0.0328
     23 C         140.5626  143.0658  164.7563 C.ar    1  UNL1        0.1735
     24 F         141.8485  143.1553  165.1578 F       1  UNL1       -0.2010
@<TRIPOS>BOND
     1    13    14    1
     2    14    12    1
     3    12     1    1
     4     1     2    1
     5     1     3    1
     6     3     4    1
     7     4     5   ar
     8     5     6   ar
     9     6     7   ar
    10     7     8   ar
    11     8     9   ar
    12     9    10    1
    13    10    16    1
    14    16    17    1
    15    17    18   ar
    16    18    19    1
    17    18    20   ar
    18    20    21   ar
    19    21    22   ar
    20    22    23   ar
    21    23    24    1
    22    10     1    1
    23    23    17   ar
    24     9     4   ar
    25    14    15    1
    26     2    11    1
@<TRIPOS>MOLECULE
*****
 24 26 0 0 0
SMALL
GASTEIGER

@<TRIPOS>ATOM
      1 C         143.0548  142.9224  164.8288 C.3     1  UNL1        0.1471
      2 O         143.8012  141.8844  165.6132 O.3     1  UNL1       -0.3812
      3 C         142.5947  144.0514  163.9549 C.3     1  UNL1        0.0584
      4 C         141.0963  144.0968  164.0067 C.ar    1  UNL1       -0.0202
      5 C         140.0960  144.9985  163.3460 C.ar    1  UNL1       -0.0044
      6 C         138.6298  144.7991  163.5912 C.ar    1  UNL1       -0.0003
      7 C         138.1637  143.6981  164.4971 C.ar    1  UNL1       -0.0002
      8 C         139.1639  142.7965  165.1578 C.ar    1  UNL1       -0.0011
      9 C         140.6302  142.9959  164.9126 C.ar    1  UNL1        0.0157
     10 C         141.8406  142.2700  165.4206 C.3     1  UNL1        0.2137
     11 H         144.7543  141.9941  165.4697 H       1  UNL1        0.2105
     12 C         144.4249  143.3578  164.4009 C.3     1  UNL1        0.1001
     13 C         145.2278  141.8923  162.4115 C.3     1  UNL1        0.0859
     14 N         144.8377  143.2310  162.9644 N.3     1  UNL1       -0.2942
     15 H         144.0546  143.5648  162.4024 H       1  UNL1        0.1234
     16 O         141.8375  141.0977  166.3563 O.3     1  UNL1       -0.4703
     17 C         141.2684  141.2412  167.7367 C.ar    1  UNL1        0.1622
     18 C         139.9953  140.5362  168.1003 C.ar    1  UNL1        0.0144
     19 C         139.2912  139.6876  167.0834 C.3     1  UNL1        0.0343
     20 C         139.4264  140.6798  169.4807 C.ar    1  UNL1       -0.0011
     21 C         140.1304  141.5285  170.4976 C.ar    1  UNL1        0.0022
     22 C         141.4035  142.2335  170.1341 C.ar    1  UNL1        0.0328
     23 C         141.9725  142.0899  168.7537 C.ar    1  UNL1        0.1735
     24 F         143.1013  142.8303  168.7375 F       1  UNL1       -0.2010
@<TRIPOS>BOND
     1    13    14    1
     2    14    12    1
     3    12     1    1
     4     1     2    1
     5     1     3    1
     6     3     4    1
     7     4     5   ar
     8     5     6   ar
     9     6     7   ar
    10     7     8   ar
    11     8     9   ar
    12     9    10    1
    13    10    16    1
    14    16    17    1
    15    17    18   ar
    16    18    19    1
    17    18    20   ar
    18    20    21   ar
    19    21    22   ar
    20    22    23   ar
    21    23    24    1
    22    10     1    1
    23    23    17   ar
    24     9     4   ar
    25    14    15    1
    26     2    11    1
@<TRIPOS>MOLECULE
*****
 24 26 0 0 0
SMALL
GASTEIGER

@<TRIPOS>ATOM
      1 C         140.9396  140.5198  167.4419 C.3     1  UNL1        0.1471
      2 O         139.6365  139.8128  167.6702 O.3     1  UNL1       -0.3812
      3 C         142.3268  141.0890  167.4823 C.3     1  UNL1        0.0584
      4 C         142.5092  141.9524  166.2692 C.ar    1  UNL1       -0.0202
      5 C         143.6711  142.7663  165.7821 C.ar    1  UNL1       -0.0044
      6 C         143.5585  143.5446  164.5048 C.ar    1  UNL1       -0.0003
      7 C         142.2839  143.5090  163.7147 C.ar    1  UNL1       -0.0002
      8 C         141.1220  142.6950  164.2018 C.ar    1  UNL1       -0.0011
      9 C         141.2346  141.9167  165.4791 C.ar    1  UNL1        0.0157
     10 C         140.2646  141.0314  166.2038 C.3     1  UNL1        0.2137
     11 H         139.6860  139.3015  168.4930 H       1  UNL1        0.2105
     12 C         141.3422  139.8605  168.7276 C.3     1  UNL1        0.1001
     13 C         140.5108  140.5694  171.0848 C.3     1  UNL1        0.0859
     14 N         140.3529  139.7352  169.8482 N.3     1  UNL1       -0.2942
     15 H         139.4368  139.9571  169.4583 H       1  UNL1        0.1234
     16 O         138.8652  140.7134  165.7672 O.3     1  UNL1       -0.4703
     17 C         138.6317  139.9307  164.5092 C.ar    1  UNL1        0.1622
     18 C         137.9439  140.5745  163.3419 C.ar    1  UNL1        0.0144
     19 C         137.4896  142.0012  163.4327 C.3     1  UNL1        0.0343
     20 C         137.7103  139.7917  162.0839 C.ar    1  UNL1       -0.0011
     21 C         138.1645  138.3650  161.9931 C.ar    1  UNL1        0.0022
     22 C         138.8524  137.7211  163.1603 C.ar    1  UNL1        0.0328
     23 C         139.0859  138.5039  164.4183 C.ar    1  UNL1        0.1735
     24 F         139.7143  137.6639  165.2680 F       1  UNL1       -0.2010
@<TRIPOS>BOND
     1    13    14    1
     2    14    12    1
     3    12     1    1
     4     1     2    1
     5     1     3    1
     6     3     4    1
     7     4     5   ar
     8     5     6   ar
     9     6     7   ar
    10     7     8   ar
    11     8     9   ar
    12     9    10    1
    13    10    16    1
    14    16    17    1
    15    17    18   ar
    16    18    19    1
    17    18    20   ar
    18    20    21   ar
    19    21    22   ar
    20    22    23   ar
    21    23    24    1
    22    10     1    1
    23    23    17   ar
    24     9     4   ar
    25    14    15    1
    26     2    11    1
@<TRIPOS>MOLECULE
*****
 24 26 0 0 0
SMALL
GASTEIGER

@<TRIPOS>ATOM
      1 C         139.9588  144.4100  163.4920 C.3     1  UNL1        0.1471
      2 O         138.5059  144.0394  163.5321 O.3     1  UNL1       -0.3812
      3 C         141.3195  144.9859  163.2336 C.3     1  UNL1        0.0584
      4 C         142.2980  144.2821  164.1264 C.ar    1  UNL1       -0.0202
      5 C         143.7796  144.4311  164.3064 C.ar    1  UNL1       -0.0044
      6 C         144.5053  143.5693  165.2965 C.ar    1  UNL1       -0.0003
      7 C         143.7493  142.5584  166.1068 C.ar    1  UNL1       -0.0002
      8 C         142.2677  142.4093  165.9269 C.ar    1  UNL1       -0.0011
      9 C         141.5420  143.2712  164.9367 C.ar    1  UNL1        0.0157
     10 C         140.0963  143.3503  164.5446 C.3     1  UNL1        0.2137
     11 H         138.0153  144.5855  162.8980 H       1  UNL1        0.2105
     12 C         139.5176  145.3923  162.4477 C.3     1  UNL1        0.1001
     13 C         140.2734  145.4828  159.9637 C.3     1  UNL1        0.0859
     14 N         139.3550  144.9506  161.0235 N.3     1  UNL1       -0.2942
     15 H         139.4547  143.9355  161.0169 H       1  UNL1        0.1234
     16 O         138.9835  142.5160  165.1064 O.3     1  UNL1       -0.4703
     17 C         138.9425  141.0410  164.8374 C.ar    1  UNL1        0.1622
     18 C         139.2437  140.0689  165.9394 C.ar    1  UNL1        0.0144
     19 C         139.5860  140.5719  167.3105 C.3     1  UNL1        0.0343
     20 C         139.2027  138.5938  165.6703 C.ar    1  UNL1       -0.0011
     21 C         138.8604  138.0907  164.2993 C.ar    1  UNL1        0.0022
     22 C         138.5592  139.0628  163.1972 C.ar    1  UNL1        0.0328
     23 C         138.6002  140.5378  163.4663 C.ar    1  UNL1        0.1735
     24 F         138.2890  141.1381  162.2978 F       1  UNL1       -0.2010
@<TRIPOS>BOND
     1    13    14    1
     2    14    12    1
     3    12     1    1
     4     1     2    1
     5     1     3    1
     6     3     4    1
     7     4     5   ar
     8     5     6   ar
     9     6     7   ar
    10     7     8   ar
    11     8     9   ar
    12     9    10    1
    13    10    16    1
    14    16    17    1
    15    17    18   ar
    16    18    19    1
    17    18    20   ar
    18    20    21   ar
    19    21    22   ar
    20    22    23   ar
    21    23    24    1
    22    10     1    1
    23    23    17   ar
    24     9     4   ar
    25    14    15    1
    26     2    11    1
@<TRIPOS>MOLECULE
*****
 24 26 0 0 0
SMALL
GASTEIGER

@<TRIPOS>ATOM
      1 C         139.5845  140.2391  166.4717 C.3     1  UNL1        0.1471
      2 O         139.4396  140.5009  165.0019 O.3     1  UNL1       -0.3812
      3 C         139.4562  139.8271  167.9083 C.3     1  UNL1        0.0584
      4 C         140.6539  140.3452  168.6479 C.ar    1  UNL1       -0.0202
      5 C         141.0657  140.2449  170.0867 C.ar    1  UNL1       -0.0044
      6 C         142.3462  140.8768  170.5461 C.ar    1  UNL1       -0.0003
      7 C         143.2148  141.6090  169.5666 C.ar    1  UNL1       -0.0002
      8 C         142.8029  141.7094  168.1278 C.ar    1  UNL1       -0.0011
      9 C         141.5224  141.0775  167.6684 C.ar    1  UNL1        0.0157
     10 C         140.8615  141.0118  166.3235 C.3     1  UNL1        0.2137
     11 H         138.6162  140.1004  164.6817 H       1  UNL1        0.2105
     12 C         138.2772  139.5210  166.3127 C.3     1  UNL1        0.1001
     13 C         137.2805  137.2300  167.0252 C.3     1  UNL1        0.0859
     14 N         137.7967  138.5911  167.3871 N.3     1  UNL1       -0.2942
     15 H         138.5796  138.4490  168.0253 H       1  UNL1        0.1234
     16 O         141.3857  141.6134  165.0533 O.3     1  UNL1       -0.4703
     17 C         142.8248  141.4275  164.6734 C.ar    1  UNL1        0.1622
     18 C         143.6677  142.6177  164.3225 C.ar    1  UNL1        0.0144
     19 C         143.0715  143.9938  164.3516 C.3     1  UNL1        0.0343
     20 C         145.1068  142.4317  163.9426 C.ar    1  UNL1       -0.0011
     21 C         145.7031  141.0557  163.9135 C.ar    1  UNL1        0.0022
     22 C         144.8602  139.8654  164.2643 C.ar    1  UNL1        0.0328
     23 C         143.4211  140.0514  164.6442 C.ar    1  UNL1        0.1735
     24 F         142.9409  138.8157  164.8992 F       1  UNL1       -0.2010
@<TRIPOS>BOND
     1    13    14    1
     2    14    12    1
     3    12     1    1
     4     1     2    1
     5     1     3    1
     6     3     4    1
     7     4     5   ar
     8     5     6   ar
     9     6     7   ar
    10     7     8   ar
    11     8     9   ar
    12     9    10    1
    13    10    16    1
    14    16    17    1
    15    17    18   ar
    16    18    19    1
    17    18    20   ar
    18    20    21   ar
    19    21    22   ar
    20    22    23   ar
    21    23    24    1
    22    10     1    1
    23    23    17   ar
    24     9     4   ar
    25    14    15    1
    26     2    11    1
