@<TRIPOS>MOLECULE
*****
 30 33 0 0 0
SMALL
GASTEIGER

@<TRIPOS>ATOM
      1 C         141.4440  142.0907  166.2675 C.2     1  UNL1        0.0017
      2 C         140.9545  142.5268  167.6167 C.2     1  UNL1        0.0130
      3 C         141.2331  141.6822  168.8246 C.3     1  UNL1        0.1542
      4 C         140.4651  142.9629  168.9658 C.3     1  UNL1        0.0614
      5 C         139.9757  143.3990  170.3150 C.3     1  UNL1        0.0725
      6 N         140.2542  142.5544  171.5229 N.3     1  UNL1       -0.2972
      7 C         141.0222  141.2737  171.3816 C.3     1  UNL1        0.0725
      8 C         141.5116  140.8376  170.0325 C.3     1  UNL1        0.0614
      9 O         142.0011  140.4015  168.6833 O.3     1  UNL1       -0.4785
     10 C         142.4905  139.9654  167.3341 C.ar    1  UNL1        0.1386
     11 C         143.2585  138.6846  167.1928 C.ar    1  UNL1        0.0369
     12 C         143.7480  138.2485  165.8437 C.ar    1  UNL1        0.0031
     13 C         143.4694  139.0932  164.6358 C.ar    1  UNL1        0.0002
     14 C         142.7014  140.3738  164.7770 C.ar    1  UNL1        0.0030
     15 C         142.2120  140.8100  166.1262 C.ar    1  UNL1        0.0338
     16 H         139.3499  142.3123  171.9278 H       1  UNL1        0.1233
     17 C         140.6083  144.6245  162.6438 C.ar    1  UNL1        0.0533
     18 C         141.9122  144.7640  163.3719 C.ar    1  UNL1        0.0045
     19 C         142.1908  143.9194  164.5799 C.ar    1  UNL1       -0.0002
     20 C         141.1654  142.9353  165.0596 C.ar    1  UNL1       -0.0041
     21 C         139.8614  142.7958  164.3314 C.ar    1  UNL1       -0.0217
     22 C         138.8361  141.8117  164.8111 C.3     1  UNL1        0.0310
     23 C         139.5829  143.6404  163.1235 C.ar    1  UNL1        0.0003
     24 N         140.7346  144.9874  160.0743 N.am    1  UNL1       -0.2761
     25 C         140.3298  145.4691  161.4359 C.2     1  UNL1        0.2490
     26 O         139.6463  146.7956  161.5896 O.2     1  UNL1       -0.2699
     27 C         141.4046  145.8151  157.7044 C.3     1  UNL1        0.0233
     28 C         140.4560  145.8320  158.8664 C.3     1  UNL1        0.0938
     29 C         141.4180  143.6609  159.9205 C.3     1  UNL1        0.0938
     30 C         140.6102  142.4296  159.6358 C.3     1  UNL1        0.0233
@<TRIPOS>BOND
     1    27    28    1
     2    28    24    1
     3    24    29    1
     4    29    30    1
     5    24    25   am
     6    25    26    2
     7    25    17    1
     8    17    18   ar
     9    18    19   ar
    10    19    20   ar
    11    20     1    1
    12     1     2    2
    13     2     3    1
    14     3     4    1
    15     4     5    1
    16     5     6    1
    17     6     7    1
    18     7     8    1
    19     3     9    1
    20     9    10    1
    21    10    11   ar
    22    11    12   ar
    23    12    13   ar
    24    13    14   ar
    25    14    15   ar
    26    20    21   ar
    27    21    22    1
    28    21    23   ar
    29    23    17   ar
    30    15     1    1
    31     8     3    1
    32    15    10   ar
    33     6    16    1
@<TRIPOS>MOLECULE
*****
 30 33 0 0 0
SMALL
GASTEIGER

@<TRIPOS>ATOM
      1 C         141.5310  140.9100  166.3444 C.2     1  UNL1        0.0017
      2 C         142.1154  141.5204  167.5838 C.2     1  UNL1        0.0130
      3 C         141.4311  141.3346  168.9056 C.3     1  UNL1        0.1542
      4 C         142.6998  142.1307  168.8232 C.3     1  UNL1        0.0614
      5 C         143.2841  142.7409  170.0625 C.3     1  UNL1        0.0725
      6 N         142.5999  142.5552  171.3843 N.3     1  UNL1       -0.2972
      7 C         141.3312  141.7592  171.4668 C.3     1  UNL1        0.0725
      8 C         140.7468  141.1489  170.2275 C.3     1  UNL1        0.0614
      9 O         140.1624  140.5386  168.9881 O.3     1  UNL1       -0.4785
     10 C         139.5781  139.9283  167.7487 C.ar    1  UNL1        0.1386
     11 C         138.3094  139.1322  167.8312 C.ar    1  UNL1        0.0369
     12 C         137.7250  138.5220  166.5918 C.ar    1  UNL1        0.0031
     13 C         138.4093  138.7077  165.2700 C.ar    1  UNL1        0.0002
     14 C         139.6779  139.5037  165.1875 C.ar    1  UNL1        0.0030
     15 C         140.2624  140.1140  166.4269 C.ar    1  UNL1        0.0338
     16 H         142.3861  143.4875  171.7388 H       1  UNL1        0.1233
     17 C         143.5839  141.4672  162.3789 C.ar    1  UNL1        0.0533
     18 C         142.5373  142.4445  162.8255 C.ar    1  UNL1        0.0045
     19 C         141.8530  142.2588  164.1473 C.ar    1  UNL1       -0.0002
     20 C         142.2153  141.0958  165.0226 C.ar    1  UNL1       -0.0041
     21 C         143.2620  140.1184  164.5760 C.ar    1  UNL1       -0.0217
     22 C         143.6243  138.9554  165.4512 C.3     1  UNL1        0.0310
     23 C         143.9463  140.3041  163.2542 C.ar    1  UNL1        0.0003
     24 N         143.7232  140.9844  159.8299 N.am    1  UNL1       -0.2761
     25 C         144.2682  141.6529  161.0571 C.2     1  UNL1        0.2490
     26 O         145.4976  142.5072  160.9625 O.2     1  UNL1       -0.2699
     27 C         144.1699  142.4173  157.7092 C.3     1  UNL1        0.0233
     28 C         144.4075  141.1701  158.5081 C.3     1  UNL1        0.0938
     29 C         142.4938  140.1301  159.9245 C.3     1  UNL1        0.0938
     30 C         142.6220  138.6380  160.0083 C.3     1  UNL1        0.0233
@<TRIPOS>BOND
     1    27    28    1
     2    28    24    1
     3    24    29    1
     4    29    30    1
     5    24    25   am
     6    25    26    2
     7    25    17    1
     8    17    18   ar
     9    18    19   ar
    10    19    20   ar
    11    20     1    1
    12     1     2    2
    13     2     3    1
    14     3     4    1
    15     4     5    1
    16     5     6    1
    17     6     7    1
    18     7     8    1
    19     3     9    1
    20     9    10    1
    21    10    11   ar
    22    11    12   ar
    23    12    13   ar
    24    13    14   ar
    25    14    15   ar
    26    20    21   ar
    27    21    22    1
    28    21    23   ar
    29    23    17   ar
    30    15     1    1
    31     8     3    1
    32    15    10   ar
    33     6    16    1
@<TRIPOS>MOLECULE
*****
 30 33 0 0 0
SMALL
GASTEIGER

@<TRIPOS>ATOM
      1 C         139.7627  141.9178  165.7336 C.2     1  UNL1        0.0017
      2 C         140.1131  142.4614  167.0871 C.2     1  UNL1        0.0130
      3 C         140.0883  141.5609  168.2864 C.3     1  UNL1        0.1542
      4 C         140.4636  143.0050  168.4404 C.3     1  UNL1        0.0614
      5 C         140.8140  143.5485  169.7938 C.3     1  UNL1        0.0725
      6 N         140.7892  142.6480  170.9932 N.3     1  UNL1       -0.2972
      7 C         140.4140  141.2039  170.8391 C.3     1  UNL1        0.0725
      8 C         140.0636  140.6603  169.4857 C.3     1  UNL1        0.0614
      9 O         139.7131  140.1167  168.1323 O.3     1  UNL1       -0.4785
     10 C         139.3627  139.5732  166.7789 C.ar    1  UNL1        0.1386
     11 C         138.9874  138.1290  166.6248 C.ar    1  UNL1        0.0369
     12 C         138.6370  137.5854  165.2714 C.ar    1  UNL1        0.0031
     13 C         138.6618  138.4860  164.0721 C.ar    1  UNL1        0.0002
     14 C         139.0370  139.9301  164.2261 C.ar    1  UNL1        0.0030
     15 C         139.3874  140.4737  165.5796 C.ar    1  UNL1        0.0338
     16 H         140.1272  143.0554  171.6536 H       1  UNL1        0.1233
     17 C         139.8370  144.6194  162.1356 C.ar    1  UNL1        0.0533
     18 C         138.5305  144.2708  162.7849 C.ar    1  UNL1        0.0045
     19 C         138.5058  143.3703  163.9843 C.ar    1  UNL1       -0.0002
     20 C         139.7874  142.8183  164.5343 C.ar    1  UNL1       -0.0041
     21 C         141.0940  143.1669  163.8849 C.ar    1  UNL1       -0.0217
     22 C         142.3756  142.6149  164.4350 C.3     1  UNL1        0.0310
     23 C         141.1187  144.0674  162.6856 C.ar    1  UNL1        0.0003
     24 N         140.2509  144.9724  159.5951 N.am    1  UNL1       -0.2761
     25 C         139.8617  145.5199  160.9362 C.2     1  UNL1        0.2490
     26 O         139.4973  146.9681  161.0781 O.2     1  UNL1       -0.2699
     27 C         141.4947  145.9266  157.5233 C.3     1  UNL1        0.0233
     28 C         140.2757  145.8729  158.3958 C.3     1  UNL1        0.0938
     29 C         140.6153  143.5242  159.4533 C.3     1  UNL1        0.0938
     30 C         139.5548  142.5113  159.1385 C.3     1  UNL1        0.0233
@<TRIPOS>BOND
     1    27    28    1
     2    28    24    1
     3    24    29    1
     4    29    30    1
     5    24    25   am
     6    25    26    2
     7    25    17    1
     8    17    18   ar
     9    18    19   ar
    10    19    20   ar
    11    20     1    1
    12     1     2    2
    13     2     3    1
    14     3     4    1
    15     4     5    1
    16     5     6    1
    17     6     7    1
    18     7     8    1
    19     3     9    1
    20     9    10    1
    21    10    11   ar
    22    11    12   ar
    23    12    13   ar
    24    13    14   ar
    25    14    15   ar
    26    20    21   ar
    27    21    22    1
    28    21    23   ar
    29    23    17   ar
    30    15     1    1
    31     8     3    1
    32    15    10   ar
    33     6    16    1
@<TRIPOS>MOLECULE
*****
 30 33 0 0 0
SMALL
GASTEIGER

@<TRIPOS>ATOM
      1 C         142.0794  141.6314  166.1862 C.2     1  UNL1        0.0017
      2 C         141.4318  142.3767  167.3156 C.2     1  UNL1        0.0130
      3 C         141.4219  141.7873  168.6949 C.3     1  UNL1        0.1542
      4 C         140.7843  143.1218  168.4449 C.3     1  UNL1        0.0614
      5 C         140.1367  143.8669  169.5743 C.3     1  UNL1        0.0725
      6 N         140.1268  143.2776  170.9536 N.3     1  UNL1       -0.2972
      7 C         140.7645  141.9431  171.2036 C.3     1  UNL1        0.0725
      8 C         141.4120  141.1980  170.0743 C.3     1  UNL1        0.0614
      9 O         142.0596  140.4528  168.9449 O.3     1  UNL1       -0.4785
     10 C         142.7071  139.7076  167.8156 C.ar    1  UNL1        0.1386
     11 C         143.3448  138.3731  168.0655 C.ar    1  UNL1        0.0369
     12 C         143.9923  137.6279  166.9362 C.ar    1  UNL1        0.0031
     13 C         144.0022  138.2173  165.5569 C.ar    1  UNL1        0.0002
     14 C         143.3646  139.5518  165.3069 C.ar    1  UNL1        0.0030
     15 C         142.7170  140.2970  166.4362 C.ar    1  UNL1        0.0338
     16 H         139.1488  143.1931  171.2307 H       1  UNL1        0.1233
     17 C         142.1090  143.3995  162.0482 C.ar    1  UNL1        0.0533
     18 C         141.0038  142.4728  162.4599 C.ar    1  UNL1        0.0045
     19 C         140.9939  141.8834  163.8393 C.ar    1  UNL1       -0.0002
     20 C         142.0892  142.2208  164.8069 C.ar    1  UNL1       -0.0041
     21 C         143.1946  143.1475  164.3952 C.ar    1  UNL1       -0.0217
     22 C         144.2900  143.4849  165.3628 C.3     1  UNL1        0.0310
     23 C         143.2045  143.7369  163.0158 C.ar    1  UNL1        0.0003
     24 N         140.9902  144.8695  160.2214 N.am    1  UNL1       -0.2761
     25 C         142.1189  143.9888  160.6689 C.2     1  UNL1        0.2490
     26 O         143.2577  143.6974  159.7369 O.2     1  UNL1       -0.2699
     27 C         140.2616  144.7757  157.7293 C.3     1  UNL1        0.0233
     28 C         141.0000  145.4588  158.8421 C.3     1  UNL1        0.0938
     29 C         139.8514  145.1609  161.1534 C.3     1  UNL1        0.0938
     30 C         139.9492  146.3006  162.1237 C.3     1  UNL1        0.0233
@<TRIPOS>BOND
     1    27    28    1
     2    28    24    1
     3    24    29    1
     4    29    30    1
     5    24    25   am
     6    25    26    2
     7    25    17    1
     8    17    18   ar
     9    18    19   ar
    10    19    20   ar
    11    20     1    1
    12     1     2    2
    13     2     3    1
    14     3     4    1
    15     4     5    1
    16     5     6    1
    17     6     7    1
    18     7     8    1
    19     3     9    1
    20     9    10    1
    21    10    11   ar
    22    11    12   ar
    23    12    13   ar
    24    13    14   ar
    25    14    15   ar
    26    20    21   ar
    27    21    22    1
    28    21    23   ar
    29    23    17   ar
    30    15     1    1
    31     8     3    1
    32    15    10   ar
    33     6    16    1
@<TRIPOS>MOLECULE
*****
 30 33 0 0 0
SMALL
GASTEIGER

@<TRIPOS>ATOM
      1 C         141.9985  142.2319  162.5393 C.2     1  UNL1        0.0017
      2 C         142.6096  141.3121  161.5240 C.2     1  UNL1        0.0130
      3 C         142.5471  141.6574  160.0656 C.3     1  UNL1        0.1542
      4 C         143.2206  140.3925  160.5087 C.3     1  UNL1        0.0614
      5 C         143.8315  139.4728  159.4934 C.3     1  UNL1        0.0725
      6 N         143.7690  139.8180  158.0350 N.3     1  UNL1       -0.2972
      7 C         143.0955  141.0829  157.5919 C.3     1  UNL1        0.0725
      8 C         142.4845  142.0026  158.6072 C.3     1  UNL1        0.0614
      9 O         141.8735  142.9223  159.6225 O.3     1  UNL1       -0.4785
     10 C         141.2625  143.8420  160.6378 C.ar    1  UNL1        0.1386
     11 C         140.5890  145.1070  160.1947 C.ar    1  UNL1        0.0369
     12 C         139.9780  146.0267  161.2100 C.ar    1  UNL1        0.0031
     13 C         140.0405  145.6814  162.6684 C.ar    1  UNL1        0.0002
     14 C         140.7140  144.4165  163.1115 C.ar    1  UNL1        0.0030
     15 C         141.3250  143.4968  162.0962 C.ar    1  UNL1        0.0338
     16 H         143.2858  139.0490  157.5708 H       1  UNL1        0.1233
     17 C         142.1861  141.1962  166.9145 C.ar    1  UNL1        0.0533
     18 C         141.0897  140.6364  166.0576 C.ar    1  UNL1        0.0045
     19 C         141.0271  140.9816  164.5992 C.ar    1  UNL1       -0.0002
     20 C         142.0611  141.8867  163.9977 C.ar    1  UNL1       -0.0041
     21 C         143.1576  142.4465  164.8546 C.ar    1  UNL1       -0.0217
     22 C         144.1915  143.3516  164.2532 C.3     1  UNL1        0.0310
     23 C         143.2201  142.1013  166.3130 C.ar    1  UNL1        0.0003
     24 N         141.5266  141.7005  169.3763 N.am    1  UNL1       -0.2761
     25 C         142.2486  140.8510  168.3729 C.2     1  UNL1        0.2490
     26 O         143.0332  139.6561  168.8278 O.2     1  UNL1       -0.2699
     27 C         140.5451  140.4643  171.4400 C.3     1  UNL1        0.0233
     28 C         141.5892  141.3553  170.8347 C.3     1  UNL1        0.0938
     29 C         140.7421  142.8954  168.9214 C.3     1  UNL1        0.0938
     30 C         140.4476  144.0092  169.8819 C.3     1  UNL1        0.0233
@<TRIPOS>BOND
     1    27    28    1
     2    28    24    1
     3    24    29    1
     4    29    30    1
     5    24    25   am
     6    25    26    2
     7    25    17    1
     8    17    18   ar
     9    18    19   ar
    10    19    20   ar
    11    20     1    1
    12     1     2    2
    13     2     3    1
    14     3     4    1
    15     4     5    1
    16     5     6    1
    17     6     7    1
    18     7     8    1
    19     3     9    1
    20     9    10    1
    21    10    11   ar
    22    11    12   ar
    23    12    13   ar
    24    13    14   ar
    25    14    15   ar
    26    20    21   ar
    27    21    22    1
    28    21    23   ar
    29    23    17   ar
    30    15     1    1
    31     8     3    1
    32    15    10   ar
    33     6    16    1
@<TRIPOS>MOLECULE
*****
 30 33 0 0 0
SMALL
GASTEIGER

@<TRIPOS>ATOM
      1 C         141.3383  140.1985  166.2121 C.2     1  UNL1        0.0017
      2 C         142.1916  141.0127  167.1390 C.2     1  UNL1        0.0130
      3 C         141.7335  141.2766  168.5427 C.3     1  UNL1        0.1542
      4 C         143.0449  141.8269  168.0658 C.3     1  UNL1        0.0614
      5 C         143.8981  142.6411  168.9926 C.3     1  UNL1        0.0725
      6 N         143.4400  142.9050  170.3964 N.3     1  UNL1       -0.2972
      7 C         142.1286  142.3547  170.8733 C.3     1  UNL1        0.0725
      8 C         141.2754  141.5405  169.9465 C.3     1  UNL1        0.0614
      9 O         140.4221  140.7263  169.0196 O.3     1  UNL1       -0.4785
     10 C         139.5688  139.9121  168.0928 C.ar    1  UNL1        0.1386
     11 C         138.2574  139.3618  168.5697 C.ar    1  UNL1        0.0369
     12 C         137.4042  138.5476  167.6428 C.ar    1  UNL1        0.0031
     13 C         137.8623  138.2837  166.2391 C.ar    1  UNL1        0.0002
     14 C         139.1736  138.8340  165.7622 C.ar    1  UNL1        0.0030
     15 C         140.0270  139.6482  166.6890 C.ar    1  UNL1        0.0338
     16 H         143.3910  143.9180  170.5046 H       1  UNL1        0.1233
     17 C         142.7127  139.4068  162.0009 C.ar    1  UNL1        0.0533
     18 C         142.9561  138.3869  163.0735 C.ar    1  UNL1        0.0045
     19 C         142.4980  138.6508  164.4773 C.ar    1  UNL1       -0.0002
     20 C         141.7964  139.9346  164.8084 C.ar    1  UNL1       -0.0041
     21 C         141.5529  140.9545  163.7358 C.ar    1  UNL1       -0.0217
     22 C         140.8513  142.2383  164.0669 C.3     1  UNL1        0.0310
     23 C         142.0111  140.6906  162.3320 C.ar    1  UNL1        0.0003
     24 N         142.1777  138.7419  159.5470 N.am    1  UNL1       -0.2761
     25 C         143.1708  139.1429  160.5972 C.2     1  UNL1        0.2490
     26 O         144.6221  139.2800  160.2436 O.2     1  UNL1       -0.2699
     27 C         142.6761  137.0731  157.6191 C.3     1  UNL1        0.0233
     28 C         142.6358  138.4780  158.1433 C.3     1  UNL1        0.0938
     29 C         140.7263  138.6048  159.9006 C.3     1  UNL1        0.0938
     30 C         139.7275  139.5863  159.3630 C.3     1  UNL1        0.0233
@<TRIPOS>BOND
     1    27    28    1
     2    28    24    1
     3    24    29    1
     4    29    30    1
     5    24    25   am
     6    25    26    2
     7    25    17    1
     8    17    18   ar
     9    18    19   ar
    10    19    20   ar
    11    20     1    1
    12     1     2    2
    13     2     3    1
    14     3     4    1
    15     4     5    1
    16     5     6    1
    17     6     7    1
    18     7     8    1
    19     3     9    1
    20     9    10    1
    21    10    11   ar
    22    11    12   ar
    23    12    13   ar
    24    13    14   ar
    25    14    15   ar
    26    20    21   ar
    27    21    22    1
    28    21    23   ar
    29    23    17   ar
    30    15     1    1
    31     8     3    1
    32    15    10   ar
    33     6    16    1
@<TRIPOS>MOLECULE
*****
 30 33 0 0 0
SMALL
GASTEIGER

@<TRIPOS>ATOM
      1 C         140.3001  140.3642  162.4496 C.2     1  UNL1        0.0017
      2 C         140.3241  141.8637  162.4828 C.2     1  UNL1        0.0130
      3 C         139.7219  142.5979  163.6439 C.3     1  UNL1        0.1542
      4 C         140.3481  143.3631  162.5160 C.3     1  UNL1        0.0614
      5 C         140.3721  144.8625  162.5493 C.3     1  UNL1        0.0725
      6 N         139.7699  145.5967  163.7104 N.3     1  UNL1       -0.2972
      7 C         139.1437  144.8315  164.8384 C.3     1  UNL1        0.0725
      8 C         139.1197  143.3321  164.8051 C.3     1  UNL1        0.0614
      9 O         139.0956  141.8326  164.7719 O.3     1  UNL1       -0.4785
     10 C         139.0716  140.3332  164.7386 C.ar    1  UNL1        0.1386
     11 C         138.4454  139.5679  165.8666 C.ar    1  UNL1        0.0369
     12 C         138.4214  138.0685  165.8333 C.ar    1  UNL1        0.0031
     13 C         139.0236  137.3343  164.6722 C.ar    1  UNL1        0.0002
     14 C         139.6498  138.0995  163.5443 C.ar    1  UNL1        0.0030
     15 C         139.6738  139.5990  163.5775 C.ar    1  UNL1        0.0338
     16 H         139.0456  146.2058  163.3300 H       1  UNL1        0.1233
     17 C         142.1067  138.1616  158.9661 C.ar    1  UNL1        0.0533
     18 C         140.6639  138.5702  158.9283 C.ar    1  UNL1        0.0045
     19 C         140.0617  139.3043  160.0895 C.ar    1  UNL1       -0.0002
     20 C         140.9023  139.6300  161.2884 C.ar    1  UNL1       -0.0041
     21 C         142.3451  139.2214  161.3262 C.ar    1  UNL1       -0.0217
     22 C         143.1857  139.5471  162.5251 C.3     1  UNL1        0.0310
     23 C         142.9473  138.4873  160.1650 C.ar    1  UNL1        0.0003
     24 N         143.1660  138.1853  156.5939 N.am    1  UNL1       -0.2761
     25 C         142.7089  137.4274  157.8049 C.2     1  UNL1        0.2490
     26 O         142.8540  135.9352  157.8548 O.2     1  UNL1       -0.2699
     27 C         142.8809  136.7531  154.4451 C.3     1  UNL1        0.0233
     28 C         143.7682  137.4511  155.4327 C.3     1  UNL1        0.0938
     29 C         143.0209  139.6775  156.5440 C.3     1  UNL1        0.0938
     30 C         144.1180  140.5557  157.0686 C.3     1  UNL1        0.0233
@<TRIPOS>BOND
     1    27    28    1
     2    28    24    1
     3    24    29    1
     4    29    30    1
     5    24    25   am
     6    25    26    2
     7    25    17    1
     8    17    18   ar
     9    18    19   ar
    10    19    20   ar
    11    20     1    1
    12     1     2    2
    13     2     3    1
    14     3     4    1
    15     4     5    1
    16     5     6    1
    17     6     7    1
    18     7     8    1
    19     3     9    1
    20     9    10    1
    21    10    11   ar
    22    11    12   ar
    23    12    13   ar
    24    13    14   ar
    25    14    15   ar
    26    20    21   ar
    27    21    22    1
    28    21    23   ar
    29    23    17   ar
    30    15     1    1
    31     8     3    1
    32    15    10   ar
    33     6    16    1
@<TRIPOS>MOLECULE
*****
 30 33 0 0 0
SMALL
GASTEIGER

@<TRIPOS>ATOM
      1 C         140.4393  142.3634  161.5220 C.2     1  UNL1        0.0017
      2 C         141.9126  142.0858  161.5720 C.2     1  UNL1        0.0130
      3 C         142.7181  142.5225  162.7596 C.3     1  UNL1        0.1542
      4 C         143.3858  141.8083  161.6220 C.3     1  UNL1        0.0614
      5 C         144.8590  141.5308  161.6720 C.3     1  UNL1        0.0725
      6 N         145.6646  141.9675  162.8596 N.3     1  UNL1       -0.2972
      7 C         144.9969  142.6817  163.9972 C.3     1  UNL1        0.0725
      8 C         143.5237  142.9592  163.9472 C.3     1  UNL1        0.0614
      9 O         142.0504  143.2367  163.8972 O.3     1  UNL1       -0.4785
     10 C         140.5772  143.5142  163.8472 C.ar    1  UNL1        0.1386
     11 C         139.9094  144.2285  164.9848 C.ar    1  UNL1        0.0369
     12 C         138.4362  144.5060  164.9348 C.ar    1  UNL1        0.0031
     13 C         137.6306  144.0693  163.7472 C.ar    1  UNL1        0.0002
     14 C         138.2983  143.3551  162.6096 C.ar    1  UNL1        0.0030
     15 C         139.7716  143.0775  162.6596 C.ar    1  UNL1        0.0338
     16 H         146.3932  142.5891  162.5087 H       1  UNL1        0.1233
     17 C         138.0226  141.0533  157.9592 C.ar    1  UNL1        0.0533
     18 C         138.2414  140.1102  159.1049 C.ar    1  UNL1        0.0045
     19 C         139.0470  140.5468  160.2925 C.ar    1  UNL1       -0.0002
     20 C         139.6337  141.9267  160.3344 C.ar    1  UNL1       -0.0041
     21 C         139.4149  142.8699  159.1887 C.ar    1  UNL1       -0.0217
     22 C         140.0016  144.2497  159.2307 C.3     1  UNL1        0.0310
     23 C         138.6093  142.4332  158.0011 C.ar    1  UNL1        0.0003
     24 N         137.9099  140.1439  155.5281 N.am    1  UNL1       -0.2761
     25 C         137.2170  140.6166  156.7717 C.2     1  UNL1        0.2490
     26 O         135.7184  140.6526  156.8276 O.2     1  UNL1       -0.2699
     27 C         136.6589  138.2799  154.2203 C.3     1  UNL1        0.0233
     28 C         137.1044  139.7072  154.3406 C.3     1  UNL1        0.0938
     29 C         139.4085  140.1079  155.4722 C.3     1  UNL1        0.0938
     30 C         140.1459  138.8766  155.9082 C.3     1  UNL1        0.0233
@<TRIPOS>BOND
     1    27    28    1
     2    28    24    1
     3    24    29    1
     4    29    30    1
     5    24    25   am
     6    25    26    2
     7    25    17    1
     8    17    18   ar
     9    18    19   ar
    10    19    20   ar
    11    20     1    1
    12     1     2    2
    13     2     3    1
    14     3     4    1
    15     4     5    1
    16     5     6    1
    17     6     7    1
    18     7     8    1
    19     3     9    1
    20     9    10    1
    21    10    11   ar
    22    11    12   ar
    23    12    13   ar
    24    13    14   ar
    25    14    15   ar
    26    20    21   ar
    27    21    22    1
    28    21    23   ar
    29    23    17   ar
    30    15     1    1
    31     8     3    1
    32    15    10   ar
    33     6    16    1
@<TRIPOS>MOLECULE
*****
 30 33 0 0 0
SMALL
GASTEIGER

@<TRIPOS>ATOM
      1 C         140.3991  140.9656  163.4014 C.2     1  UNL1        0.0017
      2 C         141.2824  140.0958  164.2461 C.2     1  UNL1        0.0130
      3 C         141.5574  140.4674  165.6731 C.3     1  UNL1        0.1542
      4 C         142.1655  139.2260  165.0908 C.3     1  UNL1        0.0614
      5 C         143.0487  138.3563  165.9354 C.3     1  UNL1        0.0725
      6 N         143.3237  138.7279  167.3624 N.3     1  UNL1       -0.2972
      7 C         142.7156  139.9693  167.9447 C.3     1  UNL1        0.0725
      8 C         141.8324  140.8390  167.1001 C.3     1  UNL1        0.0614
      9 O         140.9492  141.7088  166.2554 O.3     1  UNL1       -0.4785
     10 C         140.0660  142.5786  165.4107 C.ar    1  UNL1        0.1386
     11 C         139.4578  143.8200  165.9930 C.ar    1  UNL1        0.0369
     12 C         138.5746  144.6898  165.1484 C.ar    1  UNL1        0.0031
     13 C         138.2996  144.3182  163.7214 C.ar    1  UNL1        0.0002
     14 C         138.9078  143.0768  163.1391 C.ar    1  UNL1        0.0030
     15 C         139.7910  142.2070  163.9838 C.ar    1  UNL1        0.0338
     16 H         144.3351  138.8258  167.4515 H       1  UNL1        0.1233
     17 C         139.5741  139.8508  159.1205 C.ar    1  UNL1        0.0533
     18 C         140.6731  140.8187  159.4450 C.ar    1  UNL1        0.0045
     19 C         140.9481  141.1903  160.8720 C.ar    1  UNL1       -0.0002
     20 C         140.1241  140.5940  161.9745 C.ar    1  UNL1       -0.0041
     21 C         139.0250  139.6261  161.6500 C.ar    1  UNL1       -0.0217
     22 C         138.2011  139.0298  162.7524 C.3     1  UNL1        0.0310
     23 C         138.7500  139.2545  160.2230 C.ar    1  UNL1        0.0003
     24 N         140.1948  138.5061  156.9859 N.am    1  UNL1       -0.2761
     25 C         139.2991  139.4792  157.6935 C.2     1  UNL1        0.2490
     26 O         138.1282  140.0807  156.9741 O.2     1  UNL1       -0.2699
     27 C         138.9435  137.0401  155.2437 C.3     1  UNL1        0.0233
     28 C         139.9197  138.1345  155.5589 C.3     1  UNL1        0.0938
     29 C         141.3656  137.9046  157.7053 C.3     1  UNL1        0.0938
     30 C         142.7166  137.8849  157.0539 C.3     1  UNL1        0.0233
@<TRIPOS>BOND
     1    27    28    1
     2    28    24    1
     3    24    29    1
     4    29    30    1
     5    24    25   am
     6    25    26    2
     7    25    17    1
     8    17    18   ar
     9    18    19   ar
    10    19    20   ar
    11    20     1    1
    12     1     2    2
    13     2     3    1
    14     3     4    1
    15     4     5    1
    16     5     6    1
    17     6     7    1
    18     7     8    1
    19     3     9    1
    20     9    10    1
    21    10    11   ar
    22    11    12   ar
    23    12    13   ar
    24    13    14   ar
    25    14    15   ar
    26    20    21   ar
    27    21    22    1
    28    21    23   ar
    29    23    17   ar
    30    15     1    1
    31     8     3    1
    32    15    10   ar
    33     6    16    1
