@<TRIPOS>MOLECULE
*****
 39 43 0 0 0
SMALL
GASTEIGER

@<TRIPOS>ATOM
      1 C         142.2553  138.2845  159.5497 C.2     1  UNL1        0.0389
      2 C         142.9391  137.7408  160.7691 C.2     1  UNL1        0.1000
      3 N         141.9653  137.7936  161.9088 N.2     1  UNL1       -0.2461
      4 C         140.6797  138.3700  161.3938 C.2     1  UNL1        0.0811
      5 C         139.3691  138.6577  162.0641 C.3     1  UNL1        0.1346
      6 C         138.2377  139.2488  161.2764 C.2     1  UNL1       -0.0009
      7 C         138.4169  139.5522  159.8184 C.2     1  UNL1       -0.0025
      8 C         139.7276  139.2644  159.1481 C.2     1  UNL1        0.0011
      9 C         140.8590  138.6733  159.9358 C.2     1  UNL1        0.0185
     10 C         143.6734  137.3293  155.9683 C.ar    1  UNL1        0.2209
     11 N         144.0739  138.6797  155.4525 N.ar    1  UNL1       -0.2111
     12 C         143.8682  139.8984  156.3025 C.ar    1  UNL1        0.1147
     13 C         143.2620  139.7666  157.6682 C.ar    1  UNL1        0.0945
     14 CL        143.0563  140.9854  158.5182 Cl      1  UNL1       -0.0790
     15 C         142.8615  138.4163  158.1840 C.ar    1  UNL1        0.0977
     16 N         143.0672  137.1976  157.3340 N.ar    1  UNL1       -0.2126
     17 N         143.8791  136.1107  155.1183 N.pl3   1  UNL1       -0.2776
     18 H         144.4571  136.1573  154.3226 H       1  UNL1        0.1552
     19 C         141.7607  134.4856  155.2483 C.ar    1  UNL1        0.2571
     20 N         141.5187  133.0976  155.7628 N.ar    1  UNL1       -0.1301
     21 N         142.8126  132.5750  156.3130 N.ar    1  UNL1       -0.2432
     22 C         143.0272  131.2245  156.9294 C.3     1  UNL1        0.1539
     23 C         143.8543  133.6401  156.1385 C.ar    1  UNL1        0.1146
     24 C         143.2043  134.8210  155.4805 C.ar    1  UNL1        0.1248
     25 C         140.0901  136.4681  155.4179 C.3     1  UNL1        0.2543
     26 O         140.7387  135.3811  154.6130 O.3     1  UNL1       -0.4543
     27 N         139.1898  138.3543  163.5222 N.am    1  UNL1       -0.2964
     28 C         139.2786  139.4578  164.5343 C.2     1  UNL1        0.2374
     29 O         139.5465  140.8647  164.0883 O.2     1  UNL1       -0.2736
     30 H         139.0139  137.4309  163.8148 H       1  UNL1        0.1501
     31 C         139.0993  139.1544  165.9923 C.3     1  UNL1        0.1349
     32 C         137.9034  138.3762  166.4549 C.3     1  UNL1        0.0272
     33 N         140.1161  139.6294  166.9877 N.3     1  UNL1       -0.2641
     34 C         141.5758  139.5930  166.6443 C.3     1  UNL1        0.0900
     35 C         142.5925  140.0679  167.6396 C.3     1  UNL1        0.0897
     36 N         142.1495  140.5792  168.9784 N.3     1  UNL1       -0.2691
     37 C         143.1662  141.0541  169.9738 C.3     1  UNL1        0.0897
     38 C         140.6897  140.6156  169.3218 C.3     1  UNL1        0.0897
     39 C         139.6730  140.1407  168.3264 C.3     1  UNL1        0.0900
@<TRIPOS>BOND
     1    25    26    1
     2    26    19    1
     3    19    20   ar
     4    20    21   ar
     5    21    22    1
     6    21    23   ar
     7    23    24   ar
     8    24    17    1
     9    17    10    1
    10    10    11   ar
    11    11    12   ar
    12    12    13   ar
    13    13    14    1
    14    13    15   ar
    15    15     1    1
    16     1     2    2
    17     2     3    1
    18     3     4    2
    19     4     5    1
    20     5    27    1
    21    27    28   am
    22    28    29    2
    23    28    31    1
    24    31    32    1
    25    31    33    1
    26    33    34    1
    27    34    35    1
    28    35    36    1
    29    36    37    1
    30    36    38    1
    31    38    39    1
    32     5     6    1
    33     6     7    2
    34     7     8    1
    35     8     9    2
    36    15    16   ar
    37    24    19   ar
    38    16    10   ar
    39     9     1    1
    40     9     4    1
    41    39    33    1
    42    17    18    1
    43    27    30    1
@<TRIPOS>MOLECULE
*****
 39 43 0 0 0
SMALL
GASTEIGER

@<TRIPOS>ATOM
      1 C         142.5373  138.0426  159.9514 C.2     1  UNL1        0.0389
      2 C         143.7436  138.0219  160.8427 C.2     1  UNL1        0.1000
      3 N         143.2695  138.0569  162.2653 N.2     1  UNL1       -0.2461
      4 C         141.7700  138.0991  162.2533 C.2     1  UNL1        0.0811
      5 C         140.7583  138.1445  163.3598 C.3     1  UNL1        0.1346
      6 C         139.2941  138.1810  163.0362 C.2     1  UNL1       -0.0009
      7 C         138.8417  138.1722  161.6061 C.2     1  UNL1       -0.0025
      8 C         139.8534  138.1269  160.4996 C.2     1  UNL1        0.0011
      9 C         141.3176  138.0903  160.8232 C.2     1  UNL1        0.0185
     10 C         143.0883  136.7961  156.2241 C.ar    1  UNL1        0.2209
     11 N         142.5714  137.9736  155.4520 N.ar    1  UNL1       -0.2111
     12 C         142.0432  139.1742  156.1797 C.ar    1  UNL1        0.1147
     13 C         142.0318  139.1972  157.6795 C.ar    1  UNL1        0.0945
     14 CL        141.5035  140.3978  158.4072 Cl      1  UNL1       -0.0790
     15 C         142.5487  138.0196  158.4516 C.ar    1  UNL1        0.0977
     16 N         143.0769  136.8191  157.7239 N.ar    1  UNL1       -0.2126
     17 N         143.6165  135.5955  155.4964 N.pl3   1  UNL1       -0.2776
     18 H         144.3989  135.6830  154.9053 H       1  UNL1        0.1552
     19 C         143.1805  133.3034  156.8008 C.ar    1  UNL1        0.2571
     20 N         142.3131  132.1012  156.5719 N.ar    1  UNL1       -0.1301
     21 N         141.5493  132.3164  155.2990 N.ar    1  UNL1       -0.2432
     22 C         140.5633  131.3636  154.6907 C.3     1  UNL1        0.1539
     23 C         141.9445  133.6514  154.7412 C.ar    1  UNL1        0.1146
     24 C         142.9527  134.2616  155.6693 C.ar    1  UNL1        0.1248
     25 C         145.3043  132.6174  158.1307 C.3     1  UNL1        0.2543
     26 O         144.1121  133.5110  157.9580 O.3     1  UNL1       -0.4543
     27 N         141.2109  138.1533  164.7899 N.am    1  UNL1       -0.2964
     28 C         141.8260  139.3902  165.3743 C.2     1  UNL1        0.2374
     29 O         141.9887  140.6184  164.5285 O.2     1  UNL1       -0.2736
     30 H         141.1041  137.3472  165.3450 H       1  UNL1        0.1501
     31 C         142.2786  139.3991  166.8043 C.3     1  UNL1        0.1349
     32 C         143.3770  138.4795  167.2491 C.3     1  UNL1        0.0272
     33 N         141.6326  140.3275  167.7897 N.3     1  UNL1       -0.2641
     34 C         142.3102  141.6120  168.1653 C.3     1  UNL1        0.0900
     35 C         141.6644  142.5404  169.1506 C.3     1  UNL1        0.0897
     36 N         140.3410  142.1844  169.7603 N.3     1  UNL1       -0.2691
     37 C         139.6950  143.1128  170.7456 C.3     1  UNL1        0.0897
     38 C         139.6634  140.8999  169.3846 C.3     1  UNL1        0.0897
     39 C         140.3092  139.9715  168.3993 C.3     1  UNL1        0.0900
@<TRIPOS>BOND
     1    25    26    1
     2    26    19    1
     3    19    20   ar
     4    20    21   ar
     5    21    22    1
     6    21    23   ar
     7    23    24   ar
     8    24    17    1
     9    17    10    1
    10    10    11   ar
    11    11    12   ar
    12    12    13   ar
    13    13    14    1
    14    13    15   ar
    15    15     1    1
    16     1     2    2
    17     2     3    1
    18     3     4    2
    19     4     5    1
    20     5    27    1
    21    27    28   am
    22    28    29    2
    23    28    31    1
    24    31    32    1
    25    31    33    1
    26    33    34    1
    27    34    35    1
    28    35    36    1
    29    36    37    1
    30    36    38    1
    31    38    39    1
    32     5     6    1
    33     6     7    2
    34     7     8    1
    35     8     9    2
    36    15    16   ar
    37    24    19   ar
    38    16    10   ar
    39     9     1    1
    40     9     4    1
    41    39    33    1
    42    17    18    1
    43    27    30    1
@<TRIPOS>MOLECULE
*****
 39 43 0 0 0
SMALL
GASTEIGER

@<TRIPOS>ATOM
      1 C         141.3468  143.4903  162.1939 C.2     1  UNL1        0.0389
      2 C         140.0274  144.2038  162.2031 C.2     1  UNL1        0.1000
      3 N         139.6428  144.4855  160.7809 N.2     1  UNL1       -0.2461
      4 C         140.7246  143.9461  159.8927 C.2     1  UNL1        0.0811
      5 C         140.8867  143.9356  158.4015 C.3     1  UNL1        0.1346
      6 C         142.1020  143.3101  157.7836 C.2     1  UNL1       -0.0009
      7 C         143.1551  142.6950  158.6569 C.2     1  UNL1       -0.0025
      8 C         142.9930  142.7056  160.1481 C.2     1  UNL1        0.0011
      9 C         141.7777  143.3311  160.7660 C.2     1  UNL1        0.0185
     10 C         142.5024  141.2408  165.2523 C.ar    1  UNL1        0.2209
     11 N         143.6145  142.0759  165.8143 N.ar    1  UNL1       -0.2111
     12 C         143.9706  143.3825  165.1695 C.ar    1  UNL1        0.1147
     13 C         143.2148  143.8539  163.9627 C.ar    1  UNL1        0.0945
     14 CL        143.5710  145.1606  163.3178 Cl      1  UNL1       -0.0790
     15 C         142.1027  143.0189  163.4007 C.ar    1  UNL1        0.0977
     16 N         141.7465  141.7122  164.0456 N.ar    1  UNL1       -0.2126
     17 N         142.1462  139.9341  165.8972 N.pl3   1  UNL1       -0.2776
     18 H         142.5312  139.0952  165.5549 H       1  UNL1        0.1552
     19 C         139.7160  139.7263  166.9909 C.ar    1  UNL1        0.2571
     20 N         139.1759  139.7615  168.3898 N.ar    1  UNL1       -0.1301
     21 N         140.3295  139.9628  169.3271 N.ar    1  UNL1       -0.2432
     22 C         140.2449  140.0581  170.8217 C.3     1  UNL1        0.1539
     23 C         141.5826  140.0519  168.5075 C.ar    1  UNL1        0.1146
     24 C         141.2035  139.9058  167.0636 C.ar    1  UNL1        0.1248
     25 C         138.7628  138.1788  165.1342 C.3     1  UNL1        0.2543
     26 O         138.9101  139.5436  165.7390 O.3     1  UNL1       -0.4543
     27 N         139.8335  144.5507  157.5283 N.am    1  UNL1       -0.2964
     28 C         140.1561  145.7615  156.7038 C.2     1  UNL1        0.2374
     29 O         141.5319  146.3573  156.7526 O.2     1  UNL1       -0.2736
     30 H         138.9306  144.1596  157.4962 H       1  UNL1        0.1501
     31 C         139.1030  146.3766  155.8306 C.3     1  UNL1        0.1349
     32 C         138.1195  145.5013  155.1119 C.3     1  UNL1        0.0272
     33 N         139.0334  147.8670  155.6760 N.3     1  UNL1       -0.2641
     34 C         139.5368  148.5151  154.4204 C.3     1  UNL1        0.0900
     35 C         139.4672  150.0055  154.2657 C.3     1  UNL1        0.0897
     36 N         138.8942  150.8478  155.3667 N.3     1  UNL1       -0.2691
     37 C         138.8246  152.3382  155.2121 C.3     1  UNL1        0.0897
     38 C         138.3908  150.1997  156.6223 C.3     1  UNL1        0.0897
     39 C         138.4604  148.7093  156.7770 C.3     1  UNL1        0.0900
@<TRIPOS>BOND
     1    25    26    1
     2    26    19    1
     3    19    20   ar
     4    20    21   ar
     5    21    22    1
     6    21    23   ar
     7    23    24   ar
     8    24    17    1
     9    17    10    1
    10    10    11   ar
    11    11    12   ar
    12    12    13   ar
    13    13    14    1
    14    13    15   ar
    15    15     1    1
    16     1     2    2
    17     2     3    1
    18     3     4    2
    19     4     5    1
    20     5    27    1
    21    27    28   am
    22    28    29    2
    23    28    31    1
    24    31    32    1
    25    31    33    1
    26    33    34    1
    27    34    35    1
    28    35    36    1
    29    36    37    1
    30    36    38    1
    31    38    39    1
    32     5     6    1
    33     6     7    2
    34     7     8    1
    35     8     9    2
    36    15    16   ar
    37    24    19   ar
    38    16    10   ar
    39     9     1    1
    40     9     4    1
    41    39    33    1
    42    17    18    1
    43    27    30    1
@<TRIPOS>MOLECULE
*****
 39 43 0 0 0
SMALL
GASTEIGER

@<TRIPOS>ATOM
      1 C         142.7466  139.4688  161.9362 C.2     1  UNL1        0.0389
      2 C         142.6918  137.9885  161.7000 C.2     1  UNL1        0.1000
      3 N         142.9051  137.7447  160.2354 N.2     1  UNL1       -0.2461
      4 C         143.0918  139.0744  159.5665 C.2     1  UNL1        0.0811
      5 C         143.3383  139.4525  158.1360 C.3     1  UNL1        0.1346
      6 C         143.4868  140.8961  157.7568 C.2     1  UNL1       -0.0009
      7 C         143.3888  141.9616  158.8079 C.2     1  UNL1       -0.0025
      8 C         143.1423  141.5835  160.2384 C.2     1  UNL1        0.0011
      9 C         142.9938  140.1399  160.6177 C.2     1  UNL1        0.0185
     10 C         141.2092  141.6933  164.8411 C.ar    1  UNL1        0.2209
     11 N         142.2554  141.5340  165.9041 N.ar    1  UNL1       -0.2111
     12 C         143.4654  140.6863  165.6445 C.ar    1  UNL1        0.1147
     13 C         143.6291  139.9980  164.3219 C.ar    1  UNL1        0.0945
     14 CL        144.8391  139.1503  164.0623 Cl      1  UNL1       -0.0790
     15 C         142.5829  140.1572  163.2589 C.ar    1  UNL1        0.0977
     16 N         141.3729  141.0049  163.5185 N.ar    1  UNL1       -0.2126
     17 N         139.9992  142.5409  165.1008 N.pl3   1  UNL1       -0.2776
     18 H         139.5527  142.5060  165.9775 H       1  UNL1        0.1552
     19 C         138.1915  143.2492  163.2635 C.ar    1  UNL1        0.2571
     20 N         138.0571  144.3817  162.2892 N.ar    1  UNL1       -0.1301
     21 N         139.2521  145.2743  162.4483 N.ar    1  UNL1       -0.2432
     22 C         139.5260  146.5277  161.6711 C.3     1  UNL1        0.1539
     23 C         140.1251  144.6934  163.5208 C.ar    1  UNL1        0.1146
     24 C         139.4697  143.4418  164.0247 C.ar    1  UNL1        0.1248
     25 C         137.5098  140.7767  162.8485 C.3     1  UNL1        0.2543
     26 O         137.2186  142.1220  163.4448 O.3     1  UNL1       -0.4543
     27 N         143.4363  138.3869  157.0848 N.am    1  UNL1       -0.2964
     28 C         142.1994  137.6787  156.6172 C.2     1  UNL1        0.2374
     29 O         140.8646  138.0361  157.2008 O.2     1  UNL1       -0.2736
     30 H         144.3124  138.1523  156.7018 H       1  UNL1        0.1501
     31 C         142.2974  136.6131  155.5660 C.3     1  UNL1        0.1349
     32 C         142.2287  136.9834  154.1141 C.3     1  UNL1        0.0272
     33 N         142.4640  135.1773  155.9668 N.3     1  UNL1       -0.2641
     34 C         141.6326  134.1144  155.3118 C.3     1  UNL1        0.0900
     35 C         141.7992  132.6786  155.7125 C.3     1  UNL1        0.0897
     36 N         142.7972  132.3056  156.7683 N.3     1  UNL1       -0.2691
     37 C         142.9638  130.8697  157.1691 C.3     1  UNL1        0.0897
     38 C         143.6286  133.3684  157.4234 C.3     1  UNL1        0.0897
     39 C         143.4621  134.8043  157.0226 C.3     1  UNL1        0.0900
@<TRIPOS>BOND
     1    25    26    1
     2    26    19    1
     3    19    20   ar
     4    20    21   ar
     5    21    22    1
     6    21    23   ar
     7    23    24   ar
     8    24    17    1
     9    17    10    1
    10    10    11   ar
    11    11    12   ar
    12    12    13   ar
    13    13    14    1
    14    13    15   ar
    15    15     1    1
    16     1     2    2
    17     2     3    1
    18     3     4    2
    19     4     5    1
    20     5    27    1
    21    27    28   am
    22    28    29    2
    23    28    31    1
    24    31    32    1
    25    31    33    1
    26    33    34    1
    27    34    35    1
    28    35    36    1
    29    36    37    1
    30    36    38    1
    31    38    39    1
    32     5     6    1
    33     6     7    2
    34     7     8    1
    35     8     9    2
    36    15    16   ar
    37    24    19   ar
    38    16    10   ar
    39     9     1    1
    40     9     4    1
    41    39    33    1
    42    17    18    1
    43    27    30    1
@<TRIPOS>MOLECULE
*****
 39 43 0 0 0
SMALL
GASTEIGER

@<TRIPOS>ATOM
      1 C         141.6259  138.6394  158.8337 C.2     1  UNL1        0.0389
      2 C         140.1618  138.5450  159.1459 C.2     1  UNL1        0.1000
      3 N         139.9663  138.9470  160.5778 N.2     1  UNL1       -0.2461
      4 C         141.3097  139.2899  161.1504 C.2     1  UNL1        0.0811
      5 C         141.7314  139.7507  162.5142 C.3     1  UNL1        0.1346
      6 C         143.1788  140.0214  162.8000 C.2     1  UNL1       -0.0009
      7 C         144.2044  139.8314  161.7222 C.2     1  UNL1       -0.0025
      8 C         143.7827  139.3706  160.3584 C.2     1  UNL1        0.0011
      9 C         142.3353  139.0999  160.0726 C.2     1  UNL1        0.0185
     10 C         143.5407  136.6754  155.9656 C.ar    1  UNL1        0.2209
     11 N         143.5520  137.7056  154.8754 N.ar    1  UNL1       -0.2111
     12 C         142.9212  139.0471  155.1046 C.ar    1  UNL1        0.1147
     13 C         142.2792  139.3583  156.4241 C.ar    1  UNL1        0.0945
     14 CL        141.6484  140.6999  156.6532 Cl      1  UNL1       -0.0790
     15 C         142.2679  138.3282  157.5143 C.ar    1  UNL1        0.0977
     16 N         142.8987  136.9867  157.2850 N.ar    1  UNL1       -0.2126
     17 N         144.1714  135.3339  155.7363 N.pl3   1  UNL1       -0.2776
     18 H         145.1245  135.2725  155.4974 H       1  UNL1        0.1552
     19 C         143.4548  133.0766  156.9757 C.ar    1  UNL1        0.2571
     20 N         142.4493  131.9952  156.7123 N.ar    1  UNL1       -0.1301
     21 N         141.7230  132.3363  155.4450 N.ar    1  UNL1       -0.2432
     22 C         140.6317  131.5272  154.8092 C.3     1  UNL1        0.1539
     23 C         142.2797  133.6284  154.9251 C.ar    1  UNL1        0.1146
     24 C         143.3501  134.0861  155.8711 C.ar    1  UNL1        0.1248
     25 C         145.6265  132.2753  158.1556 C.3     1  UNL1        0.2543
     26 O         144.3994  133.1378  158.1394 O.3     1  UNL1       -0.4543
     27 N         140.7057  139.9408  163.5921 N.am    1  UNL1       -0.2964
     28 C         140.6788  139.0165  164.7732 C.2     1  UNL1        0.2374
     29 O         141.6778  137.9022  164.8764 O.2     1  UNL1       -0.2736
     30 H         140.0501  140.6721  163.5243 H       1  UNL1        0.1501
     31 C         139.6532  139.2066  165.8511 C.3     1  UNL1        0.1349
     32 C         138.4261  138.3443  165.8792 C.3     1  UNL1        0.0272
     33 N         139.8546  140.2589  166.9010 N.3     1  UNL1       -0.2641
     34 C         139.4815  139.9773  168.3263 C.3     1  UNL1        0.0900
     35 C         139.6829  141.0296  169.3761 C.3     1  UNL1        0.0897
     36 N         140.2573  142.3633  169.0007 N.3     1  UNL1       -0.2691
     37 C         140.4587  143.4156  170.0505 C.3     1  UNL1        0.0897
     38 C         140.6304  142.6449  167.5753 C.3     1  UNL1        0.0897
     39 C         140.4290  141.5926  166.5255 C.3     1  UNL1        0.0900
@<TRIPOS>BOND
     1    25    26    1
     2    26    19    1
     3    19    20   ar
     4    20    21   ar
     5    21    22    1
     6    21    23   ar
     7    23    24   ar
     8    24    17    1
     9    17    10    1
    10    10    11   ar
    11    11    12   ar
    12    12    13   ar
    13    13    14    1
    14    13    15   ar
    15    15     1    1
    16     1     2    2
    17     2     3    1
    18     3     4    2
    19     4     5    1
    20     5    27    1
    21    27    28   am
    22    28    29    2
    23    28    31    1
    24    31    32    1
    25    31    33    1
    26    33    34    1
    27    34    35    1
    28    35    36    1
    29    36    37    1
    30    36    38    1
    31    38    39    1
    32     5     6    1
    33     6     7    2
    34     7     8    1
    35     8     9    2
    36    15    16   ar
    37    24    19   ar
    38    16    10   ar
    39     9     1    1
    40     9     4    1
    41    39    33    1
    42    17    18    1
    43    27    30    1
@<TRIPOS>MOLECULE
*****
 39 43 0 0 0
SMALL
GASTEIGER

@<TRIPOS>ATOM
      1 C         142.2375  141.9330  161.4995 C.2     1  UNL1        0.0389
      2 C         142.0266  141.4196  160.1059 C.2     1  UNL1        0.1000
      3 N         141.2360  142.4450  159.3488 N.2     1  UNL1       -0.2461
      4 C         140.9582  143.5923  160.2744 C.2     1  UNL1        0.0811
      5 C         140.2217  144.8842  160.0786 C.3     1  UNL1        0.1346
      6 C         140.1040  145.8597  161.2119 C.2     1  UNL1       -0.0009
      7 C         140.7229  145.5433  162.5411 C.2     1  UNL1       -0.0025
      8 C         141.4595  144.2513  162.7369 C.2     1  UNL1        0.0011
      9 C         141.5772  143.2759  161.6036 C.2     1  UNL1        0.0185
     10 C         142.9675  139.7041  164.7008 C.ar    1  UNL1        0.2209
     11 N         144.4606  139.8166  164.7902 N.ar    1  UNL1       -0.2111
     12 C         145.2126  140.6345  163.7825 C.ar    1  UNL1        0.1147
     13 C         144.4716  141.3400  162.6857 C.ar    1  UNL1        0.0945
     14 CL        145.2237  142.1580  161.6780 Cl      1  UNL1       -0.0790
     15 C         142.9785  141.2276  162.5963 C.ar    1  UNL1        0.0977
     16 N         142.2264  140.4096  163.6040 N.ar    1  UNL1       -0.2126
     17 N         142.2154  138.8861  165.7085 N.pl3   1  UNL1       -0.2776
     18 H         142.0602  137.9274  165.5471 H       1  UNL1        0.1552
     19 C         140.3930  140.2502  167.1097 C.ar    1  UNL1        0.2571
     20 N         140.2862  140.7302  168.5268 N.ar    1  UNL1       -0.1301
     21 N         141.5270  140.3055  169.2548 N.ar    1  UNL1       -0.2432
     22 C         141.8392  140.5759  170.6969 C.3     1  UNL1        0.1539
     23 C         142.4007  139.5631  168.2878 C.ar    1  UNL1        0.1146
     24 C         141.6999  139.5288  166.9619 C.ar    1  UNL1        0.1248
     25 C         139.2466  141.7921  165.3610 C.3     1  UNL1        0.2543
     26 O         139.3723  140.4555  166.0300 O.3     1  UNL1       -0.4543
     27 N         139.6027  145.2007  158.7493 N.am    1  UNL1       -0.2964
     28 C         140.4316  145.8235  157.6653 C.2     1  UNL1        0.2374
     29 O         141.8794  146.1299  157.9106 O.2     1  UNL1       -0.2736
     30 H         138.6525  144.9996  158.5884 H       1  UNL1        0.1501
     31 C         139.8127  146.1399  156.3361 C.3     1  UNL1        0.1349
     32 C         139.4958  145.0337  155.3739 C.3     1  UNL1        0.0272
     33 N         139.5107  147.5627  155.9690 N.3     1  UNL1       -0.2641
     34 C         138.7766  148.4464  156.9335 C.3     1  UNL1        0.0900
     35 C         138.4746  149.8691  156.5665 C.3     1  UNL1        0.0897
     36 N         138.9066  150.4080  155.2350 N.3     1  UNL1       -0.2691
     37 C         138.6046  151.8307  154.8679 C.3     1  UNL1        0.0897
     38 C         139.6407  149.5243  154.2705 C.3     1  UNL1        0.0897
     39 C         139.9427  148.1016  154.6376 C.3     1  UNL1        0.0900
@<TRIPOS>BOND
     1    25    26    1
     2    26    19    1
     3    19    20   ar
     4    20    21   ar
     5    21    22    1
     6    21    23   ar
     7    23    24   ar
     8    24    17    1
     9    17    10    1
    10    10    11   ar
    11    11    12   ar
    12    12    13   ar
    13    13    14    1
    14    13    15   ar
    15    15     1    1
    16     1     2    2
    17     2     3    1
    18     3     4    2
    19     4     5    1
    20     5    27    1
    21    27    28   am
    22    28    29    2
    23    28    31    1
    24    31    32    1
    25    31    33    1
    26    33    34    1
    27    34    35    1
    28    35    36    1
    29    36    37    1
    30    36    38    1
    31    38    39    1
    32     5     6    1
    33     6     7    2
    34     7     8    1
    35     8     9    2
    36    15    16   ar
    37    24    19   ar
    38    16    10   ar
    39     9     1    1
    40     9     4    1
    41    39    33    1
    42    17    18    1
    43    27    30    1
@<TRIPOS>MOLECULE
*****
 39 43 0 0 0
SMALL
GASTEIGER

@<TRIPOS>ATOM
      1 C         140.4498  138.8636  162.4220 C.2     1  UNL1        0.0389
      2 C         141.5330  137.8362  162.2763 C.2     1  UNL1        0.1000
      3 N         141.7467  137.5924  160.8118 N.2     1  UNL1       -0.2461
      4 C         140.7955  138.4693  160.0524 C.2     1  UNL1        0.0811
      5 C         140.5557  138.6537  158.5832 C.3     1  UNL1        0.1346
      6 C         139.5145  139.6238  158.1092 C.2     1  UNL1       -0.0009
      7 C         138.7131  140.4094  159.1044 C.2     1  UNL1       -0.0025
      8 C         138.9528  140.2249  160.5736 C.2     1  UNL1        0.0011
      9 C         139.9941  139.2548  161.0476 C.2     1  UNL1        0.0185
     10 C         139.7384  141.3367  165.4433 C.ar    1  UNL1        0.2209
     11 N         138.8487  140.4872  166.3016 N.ar    1  UNL1       -0.2111
     12 C         138.4927  139.0965  165.8667 C.ar    1  UNL1        0.1147
     13 C         139.0264  138.5553  164.5735 C.ar    1  UNL1        0.0945
     14 CL        138.6703  137.1646  164.1387 Cl      1  UNL1       -0.0790
     15 C         139.9161  139.4048  163.7152 C.ar    1  UNL1        0.0977
     16 N         140.2722  140.7955  164.1501 N.ar    1  UNL1       -0.2126
     17 N         140.0945  142.7274  165.8782 N.pl3   1  UNL1       -0.2776
     18 H         139.8436  143.0415  166.7769 H       1  UNL1        0.1552
     19 C         140.2185  144.6967  164.0749 C.ar    1  UNL1        0.2571
     20 N         141.3210  145.3652  163.3085 N.ar    1  UNL1       -0.1301
     21 N         142.6168  144.7211  163.7037 N.ar    1  UNL1       -0.2432
     22 C         143.9757  145.0805  163.1801 C.3     1  UNL1        0.1539
     23 C         142.3151  143.6547  164.7143 C.ar    1  UNL1        0.1146
     24 C         140.8328  143.6395  164.9439 C.ar    1  UNL1        0.1248
     25 C         137.8151  144.0844  163.3010 C.3     1  UNL1        0.2543
     26 O         138.7579  145.0274  163.9879 O.3     1  UNL1       -0.4543
     27 N         141.3573  137.8681  157.5880 N.am    1  UNL1       -0.2964
     28 C         140.6603  137.0727  156.5242 C.2     1  UNL1        0.2374
     29 O         139.1619  137.0630  156.4556 O.2     1  UNL1       -0.2736
     30 H         142.3407  137.8745  157.6330 H       1  UNL1        0.1501
     31 C         141.4618  136.2871  155.5290 C.3     1  UNL1        0.1349
     32 C         141.7945  136.8852  154.1943 C.3     1  UNL1        0.0272
     33 N         141.9306  134.9032  155.8685 N.3     1  UNL1       -0.2641
     34 C         141.3246  133.7161  155.1803 C.3     1  UNL1        0.0900
     35 C         141.7934  132.3323  155.5197 C.3     1  UNL1        0.0897
     36 N         142.8680  132.1356  156.5475 N.3     1  UNL1       -0.2691
     37 C         143.3368  130.7517  156.8870 C.3     1  UNL1        0.0897
     38 C         143.4740  133.3226  157.2358 C.3     1  UNL1        0.0897
     39 C         143.0052  134.7065  156.8963 C.3     1  UNL1        0.0900
@<TRIPOS>BOND
     1    25    26    1
     2    26    19    1
     3    19    20   ar
     4    20    21   ar
     5    21    22    1
     6    21    23   ar
     7    23    24   ar
     8    24    17    1
     9    17    10    1
    10    10    11   ar
    11    11    12   ar
    12    12    13   ar
    13    13    14    1
    14    13    15   ar
    15    15     1    1
    16     1     2    2
    17     2     3    1
    18     3     4    2
    19     4     5    1
    20     5    27    1
    21    27    28   am
    22    28    29    2
    23    28    31    1
    24    31    32    1
    25    31    33    1
    26    33    34    1
    27    34    35    1
    28    35    36    1
    29    36    37    1
    30    36    38    1
    31    38    39    1
    32     5     6    1
    33     6     7    2
    34     7     8    1
    35     8     9    2
    36    15    16   ar
    37    24    19   ar
    38    16    10   ar
    39     9     1    1
    40     9     4    1
    41    39    33    1
    42    17    18    1
    43    27    30    1
@<TRIPOS>MOLECULE
*****
 39 43 0 0 0
SMALL
GASTEIGER

@<TRIPOS>ATOM
      1 C         141.4570  138.5582  159.0106 C.2     1  UNL1        0.0389
      2 C         140.0216  138.4690  159.4367 C.2     1  UNL1        0.1000
      3 N         139.9339  138.9149  160.8662 N.2     1  UNL1       -0.2461
      4 C         141.3152  139.2798  161.3235 C.2     1  UNL1        0.0811
      5 C         141.8373  139.7843  162.6360 C.3     1  UNL1        0.1346
      6 C         143.3008  140.0683  162.8018 C.2     1  UNL1       -0.0009
      7 C         144.2421  139.8479  161.6549 C.2     1  UNL1       -0.0025
      8 C         143.7199  139.3434  160.3424 C.2     1  UNL1        0.0011
      9 C         142.2565  139.0593  160.1766 C.2     1  UNL1        0.0185
     10 C         143.3567  136.6132  156.1195 C.ar    1  UNL1        0.2209
     11 N         143.0801  137.5072  154.9472 N.ar    1  UNL1       -0.2111
     12 C         142.2625  138.7515  155.1293 C.ar    1  UNL1        0.1147
     13 C         141.7215  139.1018  156.4838 C.ar    1  UNL1        0.0945
     14 CL        140.9038  140.3462  156.6659 Cl      1  UNL1       -0.0790
     15 C         141.9980  138.2079  157.6561 C.ar    1  UNL1        0.0977
     16 N         142.8157  136.9636  157.4739 N.ar    1  UNL1       -0.2126
     17 N         144.1743  135.3689  155.9373 N.pl3   1  UNL1       -0.2776
     18 H         145.1134  135.4348  155.6492 H       1  UNL1        0.1552
     19 C         142.1807  133.5940  155.7948 C.ar    1  UNL1        0.2571
     20 N         141.9871  132.1776  156.2492 N.ar    1  UNL1       -0.1301
     21 N         143.2478  131.7326  156.9292 N.ar    1  UNL1       -0.2432
     22 C         143.4927  130.3831  157.5367 C.3     1  UNL1        0.1539
     23 C         144.2206  132.8738  156.8952 C.ar    1  UNL1        0.1146
     24 C         143.5611  134.0243  156.1941 C.ar    1  UNL1        0.1248
     25 C         141.2685  134.6039  153.5817 C.3     1  UNL1        0.2543
     26 O         141.1712  134.4328  155.0687 O.3     1  UNL1       -0.4543
     27 N         140.8959  140.0047  163.7829 N.am    1  UNL1       -0.2964
     28 C         140.7220  138.9405  164.8256 C.2     1  UNL1        0.2374
     29 O         141.4895  137.6559  164.7215 O.2     1  UNL1       -0.2736
     30 H         140.3922  140.8478  163.8512 H       1  UNL1        0.1501
     31 C         139.7807  139.1609  165.9725 C.3     1  UNL1        0.1349
     32 C         138.3288  138.8124  165.8287 C.3     1  UNL1        0.0272
     33 N         140.2912  139.7298  167.2632 N.3     1  UNL1       -0.2641
     34 C         141.7564  140.0003  167.4360 C.3     1  UNL1        0.0900
     35 C         142.2669  140.5692  168.7266 C.3     1  UNL1        0.0897
     36 N         141.3122  140.8676  169.8443 N.3     1  UNL1       -0.2691
     37 C         141.8227  141.4365  171.1350 C.3     1  UNL1        0.0897
     38 C         139.8469  140.5971  169.6715 C.3     1  UNL1        0.0897
     39 C         139.3364  140.0282  168.3809 C.3     1  UNL1        0.0900
@<TRIPOS>BOND
     1    25    26    1
     2    26    19    1
     3    19    20   ar
     4    20    21   ar
     5    21    22    1
     6    21    23   ar
     7    23    24   ar
     8    24    17    1
     9    17    10    1
    10    10    11   ar
    11    11    12   ar
    12    12    13   ar
    13    13    14    1
    14    13    15   ar
    15    15     1    1
    16     1     2    2
    17     2     3    1
    18     3     4    2
    19     4     5    1
    20     5    27    1
    21    27    28   am
    22    28    29    2
    23    28    31    1
    24    31    32    1
    25    31    33    1
    26    33    34    1
    27    34    35    1
    28    35    36    1
    29    36    37    1
    30    36    38    1
    31    38    39    1
    32     5     6    1
    33     6     7    2
    34     7     8    1
    35     8     9    2
    36    15    16   ar
    37    24    19   ar
    38    16    10   ar
    39     9     1    1
    40     9     4    1
    41    39    33    1
    42    17    18    1
    43    27    30    1
@<TRIPOS>MOLECULE
*****
 39 43 0 0 0
SMALL
GASTEIGER

@<TRIPOS>ATOM
      1 C         143.1424  139.7995  161.2622 C.2     1  UNL1        0.0389
      2 C         142.6132  138.4730  161.7210 C.2     1  UNL1        0.1000
      3 N         142.3902  137.6184  160.5087 N.2     1  UNL1       -0.2461
      4 C         142.7816  138.4168  159.3005 C.2     1  UNL1        0.0811
      5 C         142.7747  138.0904  157.8364 C.3     1  UNL1        0.1346
      6 C         143.2327  139.1120  156.8381 C.2     1  UNL1       -0.0009
      7 C         143.6976  140.4599  157.3039 C.2     1  UNL1       -0.0025
      8 C         143.7045  140.7862  158.7679 C.2     1  UNL1        0.0011
      9 C         143.2465  139.7647  159.7662 C.2     1  UNL1        0.0185
     10 C         143.1922  143.4421  162.8367 C.ar    1  UNL1        0.2209
     11 N         144.2275  143.2734  163.9089 N.ar    1  UNL1       -0.2111
     12 C         144.9011  141.9466  164.0989 C.ar    1  UNL1        0.1147
     13 C         144.5394  140.7887  163.2167 C.ar    1  UNL1        0.0945
     14 CL        145.2131  139.4620  163.4067 Cl      1  UNL1       -0.0790
     15 C         143.5041  140.9574  162.1444 C.ar    1  UNL1        0.0977
     16 N         142.8305  142.2841  161.9545 N.ar    1  UNL1       -0.2126
     17 N         142.5186  144.7688  162.6467 N.pl3   1  UNL1       -0.2776
     18 H         143.0471  145.5554  162.3800 H       1  UNL1        0.1552
     19 C         140.0492  145.4465  161.8798 C.ar    1  UNL1        0.2571
     20 N         138.6892  145.3872  162.5097 N.ar    1  UNL1       -0.1301
     21 N         138.8392  144.8011  163.8822 N.ar    1  UNL1       -0.2432
     22 C         137.7310  144.5602  164.8640 C.3     1  UNL1        0.1539
     23 C         140.2919  144.4981  164.1006 C.ar    1  UNL1        0.1146
     24 C         141.0398  144.8969  162.8631 C.ar    1  UNL1        0.1248
     25 C         140.5741  145.0049  159.3739 C.3     1  UNL1        0.2543
     26 O         140.3635  145.9643  160.5075 O.3     1  UNL1       -0.4543
     27 N         142.3097  136.7424  157.3707 N.am    1  UNL1       -0.2964
     28 C         143.1207  135.9740  156.3698 C.2     1  UNL1        0.2374
     29 O         144.3965  136.5535  155.8346 O.2     1  UNL1       -0.2736
     30 H         141.4724  136.3621  157.7220 H       1  UNL1        0.1501
     31 C         142.6558  134.6261  155.9041 C.3     1  UNL1        0.1349
     32 C         141.6362  134.5215  154.8089 C.3     1  UNL1        0.0272
     33 N         143.2106  133.3826  156.5335 N.3     1  UNL1       -0.2641
     34 C         142.5363  132.0621  156.3064 C.3     1  UNL1        0.0900
     35 C         143.0910  130.8187  156.9358 C.3     1  UNL1        0.0897
     36 N         144.3199  130.8958  157.7923 N.3     1  UNL1       -0.2691
     37 C         144.8747  129.6523  158.4218 C.3     1  UNL1        0.0897
     38 C         144.9942  132.2163  158.0195 C.3     1  UNL1        0.0897
     39 C         144.4395  133.4597  157.3901 C.3     1  UNL1        0.0900
@<TRIPOS>BOND
     1    25    26    1
     2    26    19    1
     3    19    20   ar
     4    20    21   ar
     5    21    22    1
     6    21    23   ar
     7    23    24   ar
     8    24    17    1
     9    17    10    1
    10    10    11   ar
    11    11    12   ar
    12    12    13   ar
    13    13    14    1
    14    13    15   ar
    15    15     1    1
    16     1     2    2
    17     2     3    1
    18     3     4    2
    19     4     5    1
    20     5    27    1
    21    27    28   am
    22    28    29    2
    23    28    31    1
    24    31    32    1
    25    31    33    1
    26    33    34    1
    27    34    35    1
    28    35    36    1
    29    36    37    1
    30    36    38    1
    31    38    39    1
    32     5     6    1
    33     6     7    2
    34     7     8    1
    35     8     9    2
    36    15    16   ar
    37    24    19   ar
    38    16    10   ar
    39     9     1    1
    40     9     4    1
    41    39    33    1
    42    17    18    1
    43    27    30    1
