@<TRIPOS>MOLECULE
*****
 27 29 0 0 0
SMALL
GASTEIGER

@<TRIPOS>ATOM
      1 C         139.9933  140.5382  168.1532 C.ar    1  UNL1        0.0327
      2 C         140.1070  140.3884  166.6650 C.ar    1  UNL1        0.0044
      3 C         139.1388  139.5156  165.9229 C.ar    1  UNL1        0.0193
      4 C         138.0568  138.7926  166.6689 C.ar    1  UNL1        0.1002
      5 N         137.9431  138.9424  168.1570 N.ar    1  UNL1       -0.2296
      6 C         138.9114  139.8152  168.8992 C.ar    1  UNL1        0.1254
      7 N         138.7976  139.9649  170.3874 N.pl3   1  UNL1       -0.3426
      8 H         138.0875  139.4904  170.8770 H       1  UNL1        0.1437
      9 H         139.4331  140.5378  170.8745 H       1  UNL1        0.1437
     10 C         142.8980  143.1565  170.3795 C.ar    1  UNL1        0.2250
     11 C         143.3488  141.8365  169.8279 C.ar    1  UNL1        0.0577
     12 C         142.3806  140.9638  169.0858 C.ar    1  UNL1        0.0064
     13 C         140.9616  141.4110  168.8953 C.ar    1  UNL1        0.0221
     14 C         140.5108  142.7310  169.4469 C.ar    1  UNL1        0.1021
     15 N         141.4790  143.6038  170.1890 N.ar    1  UNL1       -0.2101
     16 C         145.3334  143.9468  170.8205 C.3     1  UNL1        0.2542
     17 O         143.8663  144.0293  171.1216 O.3     1  UNL1       -0.4561
     18 C         139.2525  139.3659  164.4347 C.ar    1  UNL1        0.0016
     19 C         138.8492  138.0793  163.7774 C.ar    1  UNL1        0.0014
     20 C         138.9629  137.9296  162.2891 C.ar    1  UNL1        0.0183
     21 C         139.4800  139.0664  161.4583 C.ar    1  UNL1        0.1057
     22 C         139.8834  140.3530  162.1157 C.ar    1  UNL1        0.0183
     23 C         139.7696  140.5027  163.6039 C.ar    1  UNL1        0.0014
     24 S         139.5938  138.9167  159.9702 S.O2    1  UNL1        0.0104
     25 C         139.7076  138.7670  158.4821 C.3     1  UNL1        0.1816
     26 O         140.9692  138.3408  160.1333 O.2     1  UNL1       -0.1686
     27 O         138.2184  139.4926  159.8071 O.2     1  UNL1       -0.1686
@<TRIPOS>BOND
     1    16    17    1
     2    17    10    1
     3    10    11   ar
     4    11    12   ar
     5    12    13   ar
     6    13     1    1
     7     1     2   ar
     8     2     3   ar
     9     3    18    1
    10    18    19   ar
    11    19    20   ar
    12    20    21   ar
    13    21    24    1
    14    24    25    1
    15    24    26    2
    16    24    27    2
    17    21    22   ar
    18    22    23   ar
    19     3     4   ar
    20     4     5   ar
    21     5     6   ar
    22     6     7    1
    23    13    14   ar
    24    14    15   ar
    25    15    10   ar
    26     6     1   ar
    27    23    18   ar
    28     7     8    1
    29     7     9    1
@<TRIPOS>MOLECULE
*****
 27 29 0 0 0
SMALL
GASTEIGER

@<TRIPOS>ATOM
      1 C         138.9056  140.0534  162.9246 C.ar    1  UNL1        0.0327
      2 C         139.8158  139.3806  161.9404 C.ar    1  UNL1        0.0044
      3 C         139.4900  139.4091  160.4765 C.ar    1  UNL1        0.0193
      4 C         138.2539  140.1104  159.9968 C.ar    1  UNL1        0.1002
      5 N         137.3436  140.7832  160.9810 N.ar    1  UNL1       -0.2296
      6 C         137.6694  140.7547  162.4449 C.ar    1  UNL1        0.1254
      7 N         136.7591  141.4275  163.4291 N.pl3   1  UNL1       -0.3426
      8 H         135.9478  141.8878  163.1143 H       1  UNL1        0.1437
      9 H         136.9729  141.4088  164.3899 H       1  UNL1        0.1437
     10 C         139.8831  139.9678  167.3163 C.ar    1  UNL1        0.2250
     11 C         138.7574  139.1328  166.7821 C.ar    1  UNL1        0.0577
     12 C         138.4315  139.1613  165.3182 C.ar    1  UNL1        0.0064
     13 C         139.2314  140.0249  164.3885 C.ar    1  UNL1        0.0221
     14 C         140.3572  140.8599  164.9226 C.ar    1  UNL1        0.1021
     15 N         140.6830  140.8314  166.3865 N.ar    1  UNL1       -0.2101
     16 C         139.2272  140.4788  169.7777 C.3     1  UNL1        0.2542
     17 O         140.2090  139.9393  168.7802 O.3     1  UNL1       -0.4561
     18 C         140.4003  138.7362  159.4922 C.ar    1  UNL1        0.0016
     19 C         141.8291  138.4624  159.8578 C.ar    1  UNL1        0.0014
     20 C         142.7394  137.7896  158.8736 C.ar    1  UNL1        0.0183
     21 C         142.2209  137.3906  157.5238 C.ar    1  UNL1        0.1057
     22 C         140.7921  137.6644  157.1582 C.ar    1  UNL1        0.0183
     23 C         139.8818  138.3372  158.1424 C.ar    1  UNL1        0.0014
     24 S         143.1312  136.7178  156.5396 S.O2    1  UNL1        0.0104
     25 C         144.0414  136.0450  155.5554 C.3     1  UNL1        0.1816
     26 O         143.9511  137.9700  156.4418 O.2     1  UNL1       -0.1686
     27 O         142.3113  135.4655  156.6373 O.2     1  UNL1       -0.1686
@<TRIPOS>BOND
     1    16    17    1
     2    17    10    1
     3    10    11   ar
     4    11    12   ar
     5    12    13   ar
     6    13     1    1
     7     1     2   ar
     8     2     3   ar
     9     3    18    1
    10    18    19   ar
    11    19    20   ar
    12    20    21   ar
    13    21    24    1
    14    24    25    1
    15    24    26    2
    16    24    27    2
    17    21    22   ar
    18    22    23   ar
    19     3     4   ar
    20     4     5   ar
    21     5     6   ar
    22     6     7    1
    23    13    14   ar
    24    14    15   ar
    25    15    10   ar
    26     6     1   ar
    27    23    18   ar
    28     7     8    1
    29     7     9    1
@<TRIPOS>MOLECULE
*****
 27 29 0 0 0
SMALL
GASTEIGER

@<TRIPOS>ATOM
      1 C         139.9581  142.4417  161.6893 C.ar    1  UNL1        0.0327
      2 C         140.3110  142.1824  163.1239 C.ar    1  UNL1        0.0044
      3 C         139.2282  142.0898  164.1578 C.ar    1  UNL1        0.0193
      4 C         137.7924  142.2566  163.7571 C.ar    1  UNL1        0.1002
      5 N         137.4394  142.5159  162.3225 N.ar    1  UNL1       -0.2296
      6 C         138.5222  142.6085  161.2886 C.ar    1  UNL1        0.1254
      7 N         138.1692  142.8679  159.8540 N.pl3   1  UNL1       -0.3426
      8 H         137.2268  142.9773  159.5910 H       1  UNL1        0.1437
      9 H         138.8799  142.9286  159.1754 H       1  UNL1        0.1437
     10 C         143.2065  142.7195  158.5876 C.ar    1  UNL1        0.2250
     11 C         142.5912  141.3906  158.9123 C.ar    1  UNL1        0.0577
     12 C         141.5084  141.2981  159.9462 C.ar    1  UNL1        0.0064
     13 C         141.0409  142.5343  160.6554 C.ar    1  UNL1        0.0221
     14 C         141.6562  143.8632  160.3307 C.ar    1  UNL1        0.1021
     15 N         142.7390  143.9558  159.2968 N.ar    1  UNL1       -0.2101
     16 C         145.2250  141.6590  157.3423 C.3     1  UNL1        0.2542
     17 O         144.2893  142.8121  157.5537 O.3     1  UNL1       -0.4561
     18 C         139.5813  141.8304  165.5925 C.ar    1  UNL1        0.0016
     19 C         140.1991  142.9174  166.4211 C.ar    1  UNL1        0.0014
     20 C         140.5522  142.6580  167.8558 C.ar    1  UNL1        0.0183
     21 C         140.2874  141.3116  168.4617 C.ar    1  UNL1        0.1057
     22 C         139.6695  140.2246  167.6329 C.ar    1  UNL1        0.0183
     23 C         139.3165  140.4840  166.1984 C.ar    1  UNL1        0.0014
     24 S         140.6404  141.0522  169.8962 S.O2    1  UNL1        0.0104
     25 C         140.9934  140.7928  171.3308 C.3     1  UNL1        0.1816
     26 O         141.3304  142.3822  169.9669 O.2     1  UNL1       -0.1686
     27 O         139.9504  139.7223  169.8256 O.2     1  UNL1       -0.1686
@<TRIPOS>BOND
     1    16    17    1
     2    17    10    1
     3    10    11   ar
     4    11    12   ar
     5    12    13   ar
     6    13     1    1
     7     1     2   ar
     8     2     3   ar
     9     3    18    1
    10    18    19   ar
    11    19    20   ar
    12    20    21   ar
    13    21    24    1
    14    24    25    1
    15    24    26    2
    16    24    27    2
    17    21    22   ar
    18    22    23   ar
    19     3     4   ar
    20     4     5   ar
    21     5     6   ar
    22     6     7    1
    23    13    14   ar
    24    14    15   ar
    25    15    10   ar
    26     6     1   ar
    27    23    18   ar
    28     7     8    1
    29     7     9    1
@<TRIPOS>MOLECULE
*****
 27 29 0 0 0
SMALL
GASTEIGER

@<TRIPOS>ATOM
      1 C         142.5943  142.0277  161.6399 C.ar    1  UNL1        0.0327
      2 C         142.3466  141.8173  163.1043 C.ar    1  UNL1        0.0044
      3 C         142.3395  142.9899  164.0398 C.ar    1  UNL1        0.0193
      4 C         142.5801  144.3727  163.5109 C.ar    1  UNL1        0.1002
      5 N         142.8278  144.5831  162.0466 N.ar    1  UNL1       -0.2296
      6 C         142.8349  143.4106  161.1111 C.ar    1  UNL1        0.1254
      7 N         143.0826  143.6210  159.6467 N.pl3   1  UNL1       -0.3426
      8 H         143.2405  144.5286  159.2996 H       1  UNL1        0.1437
      9 H         143.0872  142.8514  159.0327 H       1  UNL1        0.1437
     10 C         142.6155  138.5101  158.8335 C.ar    1  UNL1        0.2250
     11 C         141.3433  139.2656  159.0796 C.ar    1  UNL1        0.0577
     12 C         141.3362  140.4381  160.0151 C.ar    1  UNL1        0.0064
     13 C         142.6014  140.8552  160.7045 C.ar    1  UNL1        0.0221
     14 C         143.8736  140.0997  160.4584 C.ar    1  UNL1        0.1021
     15 N         143.8807  138.9272  159.5229 N.ar    1  UNL1       -0.2101
     16 C         142.9901  137.5304  156.4566 C.3     1  UNL1        0.2542
     17 O         142.6226  137.3376  157.8980 O.3     1  UNL1       -0.4561
     18 C         142.0918  142.7795  165.5042 C.ar    1  UNL1        0.0016
     19 C         140.7113  142.9543  166.0641 C.ar    1  UNL1        0.0014
     20 C         140.4636  142.7438  167.5285 C.ar    1  UNL1        0.0183
     21 C         141.5965  142.3586  168.4330 C.ar    1  UNL1        0.1057
     22 C         142.9771  142.1838  167.8730 C.ar    1  UNL1        0.0183
     23 C         143.2247  142.3942  166.4087 C.ar    1  UNL1        0.0014
     24 S         141.3489  142.1482  169.8973 S.O2    1  UNL1        0.0104
     25 C         141.1012  141.9378  171.3617 C.3     1  UNL1        0.1816
     26 O         141.3862  140.6631  169.6902 O.2     1  UNL1       -0.1686
     27 O         141.3116  143.6334  170.1044 O.2     1  UNL1       -0.1686
@<TRIPOS>BOND
     1    16    17    1
     2    17    10    1
     3    10    11   ar
     4    11    12   ar
     5    12    13   ar
     6    13     1    1
     7     1     2   ar
     8     2     3   ar
     9     3    18    1
    10    18    19   ar
    11    19    20   ar
    12    20    21   ar
    13    21    24    1
    14    24    25    1
    15    24    26    2
    16    24    27    2
    17    21    22   ar
    18    22    23   ar
    19     3     4   ar
    20     4     5   ar
    21     5     6   ar
    22     6     7    1
    23    13    14   ar
    24    14    15   ar
    25    15    10   ar
    26     6     1   ar
    27    23    18   ar
    28     7     8    1
    29     7     9    1
@<TRIPOS>MOLECULE
*****
 27 29 0 0 0
SMALL
GASTEIGER

@<TRIPOS>ATOM
      1 C         140.7204  138.9263  162.1616 C.ar    1  UNL1        0.0327
      2 C         141.0179  139.3442  163.5711 C.ar    1  UNL1        0.0044
      3 C         140.0517  139.0159  164.6706 C.ar    1  UNL1        0.0193
      4 C         138.7880  138.2697  164.3605 C.ar    1  UNL1        0.1002
      5 N         138.4905  137.8518  162.9510 N.ar    1  UNL1       -0.2296
      6 C         139.4567  138.1800  161.8515 C.ar    1  UNL1        0.1254
      7 N         139.1591  137.7621  160.4420 N.pl3   1  UNL1       -0.3426
      8 H         138.3296  137.2723  160.2385 H       1  UNL1        0.1437
      9 H         139.7932  137.9775  159.7204 H       1  UNL1        0.1437
     10 C         143.6188  139.9111  158.8633 C.ar    1  UNL1        0.2250
     11 C         142.5996  140.9241  159.2933 C.ar    1  UNL1        0.0577
     12 C         141.6335  140.5958  160.3928 C.ar    1  UNL1        0.0064
     13 C         141.6865  139.2545  161.0622 C.ar    1  UNL1        0.0221
     14 C         142.7057  138.2416  160.6321 C.ar    1  UNL1        0.1021
     15 N         143.6719  138.5698  159.5327 N.ar    1  UNL1       -0.2101
     16 C         144.8411  141.6700  157.3928 C.3     1  UNL1        0.2542
     17 O         144.5850  140.2394  157.7638 O.3     1  UNL1       -0.4561
     18 C         140.3493  139.4339  166.0801 C.ar    1  UNL1        0.0016
     19 C         139.2250  139.7150  167.0323 C.ar    1  UNL1        0.0014
     20 C         139.5226  140.1329  168.4419 C.ar    1  UNL1        0.0183
     21 C         140.9446  140.2698  168.8992 C.ar    1  UNL1        0.1057
     22 C         142.0690  139.9887  167.9469 C.ar    1  UNL1        0.0183
     23 C         141.7714  139.5707  166.5374 C.ar    1  UNL1        0.0014
     24 S         141.2422  140.6877  170.3087 S.O2    1  UNL1        0.0104
     25 C         141.5399  141.1057  171.7181 C.3     1  UNL1        0.1816
     26 O         139.7831  140.5956  170.6441 O.2     1  UNL1       -0.1686
     27 O         142.7013  140.7799  169.9732 O.2     1  UNL1       -0.1686
@<TRIPOS>BOND
     1    16    17    1
     2    17    10    1
     3    10    11   ar
     4    11    12   ar
     5    12    13   ar
     6    13     1    1
     7     1     2   ar
     8     2     3   ar
     9     3    18    1
    10    18    19   ar
    11    19    20   ar
    12    20    21   ar
    13    21    24    1
    14    24    25    1
    15    24    26    2
    16    24    27    2
    17    21    22   ar
    18    22    23   ar
    19     3     4   ar
    20     4     5   ar
    21     5     6   ar
    22     6     7    1
    23    13    14   ar
    24    14    15   ar
    25    15    10   ar
    26     6     1   ar
    27    23    18   ar
    28     7     8    1
    29     7     9    1
@<TRIPOS>MOLECULE
*****
 27 29 0 0 0
SMALL
GASTEIGER

@<TRIPOS>ATOM
      1 C         139.3240  141.2899  161.0895 C.ar    1  UNL1        0.0327
      2 C         139.5815  140.9335  162.5236 C.ar    1  UNL1        0.0044
      3 C         139.0599  141.8136  163.6205 C.ar    1  UNL1        0.0193
      4 C         138.2807  143.0502  163.2834 C.ar    1  UNL1        0.1002
      5 N         138.0232  143.4067  161.8493 N.ar    1  UNL1       -0.2296
      6 C         138.5449  142.5266  160.7524 C.ar    1  UNL1        0.1254
      7 N         138.2873  142.8831  159.3183 N.pl3   1  UNL1       -0.3426
      8 H         137.7760  143.6948  159.0970 H       1  UNL1        0.1437
      9 H         138.6297  142.3055  158.5983 H       1  UNL1        0.1437
     10 C         140.8889  138.6496  157.7987 C.ar    1  UNL1        0.2250
     11 C         141.7625  139.7217  158.3794 C.ar    1  UNL1        0.0577
     12 C         141.2408  140.6018  159.4764 C.ar    1  UNL1        0.0064
     13 C         139.8456  140.4098  159.9926 C.ar    1  UNL1        0.0221
     14 C         138.9721  139.3377  159.4118 C.ar    1  UNL1        0.1021
     15 N         139.4937  138.4575  158.3149 N.ar    1  UNL1       -0.2101
     16 C         142.5218  136.8015  156.9812 C.3     1  UNL1        0.2542
     17 O         141.4105  137.7694  156.7017 O.3     1  UNL1       -0.4561
     18 C         139.3174  141.4570  165.0546 C.ar    1  UNL1        0.0016
     19 C         140.0807  142.4002  165.9365 C.ar    1  UNL1        0.0014
     20 C         140.3382  142.0437  167.3706 C.ar    1  UNL1        0.0183
     21 C         139.8324  140.7439  167.9228 C.ar    1  UNL1        0.1057
     22 C         139.0691  139.8007  167.0408 C.ar    1  UNL1        0.0183
     23 C         138.8116  140.1573  165.6068 C.ar    1  UNL1        0.0014
     24 S         140.0899  140.3874  169.3568 S.O2    1  UNL1        0.0104
     25 C         140.3474  140.0308  170.7908 C.3     1  UNL1        0.1816
     26 O         141.4587  140.9936  169.2618 O.2     1  UNL1       -0.1686
     27 O         138.7212  139.7812  169.4518 O.2     1  UNL1       -0.1686
@<TRIPOS>BOND
     1    16    17    1
     2    17    10    1
     3    10    11   ar
     4    11    12   ar
     5    12    13   ar
     6    13     1    1
     7     1     2   ar
     8     2     3   ar
     9     3    18    1
    10    18    19   ar
    11    19    20   ar
    12    20    21   ar
    13    21    24    1
    14    24    25    1
    15    24    26    2
    16    24    27    2
    17    21    22   ar
    18    22    23   ar
    19     3     4   ar
    20     4     5   ar
    21     5     6   ar
    22     6     7    1
    23    13    14   ar
    24    14    15   ar
    25    15    10   ar
    26     6     1   ar
    27    23    18   ar
    28     7     8    1
    29     7     9    1
@<TRIPOS>MOLECULE
*****
 27 29 0 0 0
SMALL
GASTEIGER

@<TRIPOS>ATOM
      1 C         141.3856  142.8095  161.5745 C.ar    1  UNL1        0.0327
      2 C         141.2314  142.5227  163.0386 C.ar    1  UNL1        0.0044
      3 C         142.1540  143.1670  164.0304 C.ar    1  UNL1        0.0193
      4 C         143.2309  144.0981  163.5579 C.ar    1  UNL1        0.1002
      5 N         143.3851  144.3849  162.0937 N.ar    1  UNL1       -0.2296
      6 C         142.4625  143.7406  161.1020 C.ar    1  UNL1        0.1254
      7 N         142.6167  144.0275  159.6377 N.pl3   1  UNL1       -0.3426
      8 H         143.3235  144.6386  159.3276 H       1  UNL1        0.1437
      9 H         142.0112  143.6046  158.9868 H       1  UNL1        0.1437
     10 C         138.6176  140.8765  158.5993 C.ar    1  UNL1        0.2250
     11 C         139.8158  140.1290  159.1045 C.ar    1  UNL1        0.0577
     12 C         140.7385  140.7733  160.0963 C.ar    1  UNL1        0.0064
     13 C         140.4629  142.1652  160.5827 C.ar    1  UNL1        0.0221
     14 C         139.2647  142.9127  160.0774 C.ar    1  UNL1        0.1021
     15 N         138.3420  142.2684  159.0857 N.ar    1  UNL1       -0.2101
     16 C         136.7465  141.0753  156.8077 C.3     1  UNL1        0.2542
     17 O         137.6949  140.2322  157.6075 O.3     1  UNL1       -0.4561
     18 C         141.9998  142.8801  165.4946 C.ar    1  UNL1        0.0016
     19 C         143.2040  142.5469  166.3246 C.ar    1  UNL1        0.0014
     20 C         143.0497  142.2601  167.7888 C.ar    1  UNL1        0.0183
     21 C         141.6912  142.3064  168.4231 C.ar    1  UNL1        0.1057
     22 C         140.4870  142.6397  167.5931 C.ar    1  UNL1        0.0183
     23 C         140.6413  142.9265  166.1289 C.ar    1  UNL1        0.0014
     24 S         141.5369  142.0196  169.8873 S.O2    1  UNL1        0.0104
     25 C         141.3826  141.7328  171.3514 C.3     1  UNL1        0.1816
     26 O         140.9264  140.6886  169.5622 O.2     1  UNL1       -0.1686
     27 O         142.1474  143.3506  170.2123 O.2     1  UNL1       -0.1686
@<TRIPOS>BOND
     1    16    17    1
     2    17    10    1
     3    10    11   ar
     4    11    12   ar
     5    12    13   ar
     6    13     1    1
     7     1     2   ar
     8     2     3   ar
     9     3    18    1
    10    18    19   ar
    11    19    20   ar
    12    20    21   ar
    13    21    24    1
    14    24    25    1
    15    24    26    2
    16    24    27    2
    17    21    22   ar
    18    22    23   ar
    19     3     4   ar
    20     4     5   ar
    21     5     6   ar
    22     6     7    1
    23    13    14   ar
    24    14    15   ar
    25    15    10   ar
    26     6     1   ar
    27    23    18   ar
    28     7     8    1
    29     7     9    1
@<TRIPOS>MOLECULE
*****
 27 29 0 0 0
SMALL
GASTEIGER

@<TRIPOS>ATOM
      1 C         139.4225  141.7465  161.2820 C.ar    1  UNL1        0.0327
      2 C         139.6764  141.6506  162.7572 C.ar    1  UNL1        0.0044
      3 C         138.9303  140.6448  163.5828 C.ar    1  UNL1        0.0193
      4 C         137.9304  139.7348  162.9332 C.ar    1  UNL1        0.1002
      5 N         137.6765  139.8307  161.4580 N.ar    1  UNL1       -0.2296
      6 C         138.4226  140.8366  160.6324 C.ar    1  UNL1        0.1254
      7 N         138.1687  140.9324  159.1571 N.pl3   1  UNL1       -0.3426
      8 H         137.5123  140.3352  158.7307 H       1  UNL1        0.1437
      9 H         138.6583  141.5926  158.6152 H       1  UNL1        0.1437
     10 C         141.6607  144.7641  158.8052 C.ar    1  UNL1        0.2250
     11 C         140.4934  145.1978  159.6414 C.ar    1  UNL1        0.0577
     12 C         139.7474  144.1920  160.4670 C.ar    1  UNL1        0.0064
     13 C         140.1686  142.7524  160.4564 C.ar    1  UNL1        0.0221
     14 C         141.3358  142.3187  159.6202 C.ar    1  UNL1        0.1021
     15 N         142.0819  143.3246  158.7946 N.ar    1  UNL1       -0.2101
     16 C         142.0537  145.9645  156.5348 C.3     1  UNL1        0.2542
     17 O         142.4068  145.7700  157.9796 O.3     1  UNL1       -0.4561
     18 C         139.1842  140.5489  165.0581 C.ar    1  UNL1        0.0016
     19 C         140.1365  141.5011  165.7187 C.ar    1  UNL1        0.0014
     20 C         140.3905  141.4052  167.1940 C.ar    1  UNL1        0.0183
     21 C         139.6920  140.3571  168.0086 C.ar    1  UNL1        0.1057
     22 C         138.7397  139.4049  167.3480 C.ar    1  UNL1        0.0183
     23 C         138.4858  139.5008  165.8728 C.ar    1  UNL1        0.0014
     24 S         139.9459  140.2612  169.4838 S.O2    1  UNL1        0.0104
     25 C         140.1998  140.1653  170.9591 C.3     1  UNL1        0.1816
     26 O         141.3561  140.7260  169.2714 O.2     1  UNL1       -0.1686
     27 O         138.5357  139.7965  169.6963 O.2     1  UNL1       -0.1686
@<TRIPOS>BOND
     1    16    17    1
     2    17    10    1
     3    10    11   ar
     4    11    12   ar
     5    12    13   ar
     6    13     1    1
     7     1     2   ar
     8     2     3   ar
     9     3    18    1
    10    18    19   ar
    11    19    20   ar
    12    20    21   ar
    13    21    24    1
    14    24    25    1
    15    24    26    2
    16    24    27    2
    17    21    22   ar
    18    22    23   ar
    19     3     4   ar
    20     4     5   ar
    21     5     6   ar
    22     6     7    1
    23    13    14   ar
    24    14    15   ar
    25    15    10   ar
    26     6     1   ar
    27    23    18   ar
    28     7     8    1
    29     7     9    1
@<TRIPOS>MOLECULE
*****
 27 29 0 0 0
SMALL
GASTEIGER

@<TRIPOS>ATOM
      1 C         142.2489  143.2884  161.6533 C.ar    1  UNL1        0.0327
      2 C         142.2732  142.7502  163.0532 C.ar    1  UNL1        0.0044
      3 C         141.6998  143.5600  164.1781 C.ar    1  UNL1        0.0193
      4 C         141.1020  144.9080  163.9031 C.ar    1  UNL1        0.1002
      5 N         141.0777  145.4461  162.5032 N.ar    1  UNL1       -0.2296
      6 C         141.6511  144.6364  161.3783 C.ar    1  UNL1        0.1254
      7 N         141.6268  145.1746  159.9783 N.pl3   1  UNL1       -0.3426
      8 H         141.2344  146.0593  159.7979 H       1  UNL1        0.1437
      9 H         142.0031  144.6431  159.2400 H       1  UNL1        0.1437
     10 C         143.9692  140.8591  158.2785 C.ar    1  UNL1        0.2250
     11 C         142.5974  140.5510  158.8011 C.ar    1  UNL1        0.0577
     12 C         142.0239  141.3608  159.9260 C.ar    1  UNL1        0.0064
     13 C         142.8223  142.4786  160.5284 C.ar    1  UNL1        0.0221
     14 C         144.1942  142.7867  160.0059 C.ar    1  UNL1        0.1021
     15 N         144.7676  141.9769  158.8809 N.ar    1  UNL1       -0.2101
     16 C         145.4508  140.6966  156.1505 C.3     1  UNL1        0.2542
     17 O         144.5427  140.0493  157.1536 O.3     1  UNL1       -0.4561
     18 C         141.7241  143.0218  165.5780 C.ar    1  UNL1        0.0016
     19 C         140.4542  142.9396  166.3721 C.ar    1  UNL1        0.0014
     20 C         140.4786  142.4014  167.7721 C.ar    1  UNL1        0.0183
     21 C         141.7728  141.9453  168.3778 C.ar    1  UNL1        0.1057
     22 C         143.0427  142.0275  167.5836 C.ar    1  UNL1        0.0183
     23 C         143.0183  142.5657  166.1838 C.ar    1  UNL1        0.0014
     24 S         141.7972  141.4071  169.7777 S.O2    1  UNL1        0.0104
     25 C         141.8216  140.8689  171.1776 C.3     1  UNL1        0.1816
     26 O         140.7116  142.3667  170.1656 O.2     1  UNL1       -0.1686
     27 O         142.8828  140.4475  169.3898 O.2     1  UNL1       -0.1686
@<TRIPOS>BOND
     1    16    17    1
     2    17    10    1
     3    10    11   ar
     4    11    12   ar
     5    12    13   ar
     6    13     1    1
     7     1     2   ar
     8     2     3   ar
     9     3    18    1
    10    18    19   ar
    11    19    20   ar
    12    20    21   ar
    13    21    24    1
    14    24    25    1
    15    24    26    2
    16    24    27    2
    17    21    22   ar
    18    22    23   ar
    19     3     4   ar
    20     4     5   ar
    21     5     6   ar
    22     6     7    1
    23    13    14   ar
    24    14    15   ar
    25    15    10   ar
    26     6     1   ar
    27    23    18   ar
    28     7     8    1
    29     7     9    1
