@<TRIPOS>MOLECULE
*****
 33 36 0 0 0
SMALL
GASTEIGER

@<TRIPOS>ATOM
      1 N         140.0074  139.0507  159.7381 N.am    1  UNL1       -0.2555
      2 C         140.5472  138.8142  161.1174 C.3     1  UNL1        0.1197
      3 C         139.8660  139.4275  162.3048 C.3     1  UNL1        0.1160
      4 N         138.6449  140.2773  162.1127 N.am    1  UNL1       -0.2660
      5 C         137.9637  140.8906  163.3002 C.2     1  UNL1        0.2494
      6 O         136.7426  141.7404  163.1081 O.2     1  UNL1       -0.2699
      7 C         138.1051  140.5138  160.7334 C.3     1  UNL1        0.1799
      8 C         138.7863  139.9005  159.5461 C.2     1  UNL1        0.2497
      9 O         138.2465  140.1371  158.1667 O.2     1  UNL1       -0.2727
     10 C         142.0510  137.2109  156.1759 C.ar    1  UNL1        0.1385
     11 C         140.5630  137.0975  156.3284 C.ar    1  UNL1        0.0382
     12 C         139.8819  137.7107  157.5158 C.ar    1  UNL1        0.0180
     13 C         140.6886  138.4374  158.5507 C.ar    1  UNL1        0.0541
     14 C         142.1765  138.5509  158.3983 C.ar    1  UNL1        0.0180
     15 C         142.8577  137.9376  157.2109 C.ar    1  UNL1        0.0382
     16 O         142.7322  136.5976  154.9886 O.3     1  UNL1       -0.4791
     17 N         143.3540  132.1446  154.8029 N.3     1  UNL1       -0.2737
     18 C         143.9515  132.9391  155.9261 C.3     1  UNL1        0.0758
     19 C         143.7442  134.4235  155.9880 C.3     1  UNL1        0.0609
     20 C         142.9394  135.1133  154.9267 C.3     1  UNL1        0.1687
     21 C         142.3420  134.3188  153.8034 C.3     1  UNL1        0.0609
     22 C         142.5493  132.8344  153.7415 C.3     1  UNL1        0.0758
     23 C         144.8485  130.0619  155.2258 C.3     1  UNL1        0.0173
     24 C         143.5613  130.6603  154.7409 C.3     1  UNL1        0.0576
     25 C         142.4815  129.7744  154.1942 C.3     1  UNL1        0.0173
     26 C         138.5035  140.6541  164.6795 C.ar    1  UNL1        0.0536
     27 C         139.4511  141.6415  165.2936 C.ar    1  UNL1        0.0052
     28 C         139.9909  141.4049  166.6729 C.ar    1  UNL1        0.0104
     29 C         139.5831  140.1809  167.4382 C.ar    1  UNL1        0.0685
     30 C         138.6355  139.1935  166.8241 C.ar    1  UNL1        0.0104
     31 C         138.0957  139.4301  165.4447 C.ar    1  UNL1        0.0052
     32 C         140.1229  139.9444  168.8176 C.1     1  UNL1        0.1004
     33 N         140.6627  139.7078  170.1970 N.1     1  UNL1       -0.1908
@<TRIPOS>BOND
     1    23    24    1
     2    24    25    1
     3    24    17    1
     4    17    18    1
     5    18    19    1
     6    19    20    1
     7    20    16    1
     8    16    10    1
     9    10    11   ar
    10    11    12   ar
    11    12    13   ar
    12    13     1    1
    13     1     2    1
    14     2     3    1
    15     3     4    1
    16     4     5   am
    17     5     6    2
    18     5    26    1
    19    26    27   ar
    20    27    28   ar
    21    28    29   ar
    22    29    32    1
    23    32    33    3
    24    29    30   ar
    25    30    31   ar
    26     4     7    1
    27     7     8    1
    28     8     9    2
    29    13    14   ar
    30    14    15   ar
    31    20    21    1
    32    21    22    1
    33    22    17    1
    34    15    10   ar
    35     8     1   am
    36    31    26   ar
@<TRIPOS>MOLECULE
*****
 33 36 0 0 0
SMALL
GASTEIGER

@<TRIPOS>ATOM
      1 N         140.7162  138.8772  162.7225 N.am    1  UNL1       -0.2555
      2 C         141.5565  139.7670  163.5897 C.3     1  UNL1        0.1197
      3 C         141.1553  140.0239  165.0120 C.3     1  UNL1        0.1160
      4 N         139.9138  139.3910  165.5671 N.am    1  UNL1       -0.2660
      5 C         139.5126  139.6479  166.9895 C.2     1  UNL1        0.2494
      6 O         138.2711  139.0150  167.5446 O.2     1  UNL1       -0.2699
      7 C         139.0735  138.5011  164.6999 C.3     1  UNL1        0.1799
      8 C         139.4747  138.2443  163.2776 C.2     1  UNL1        0.2497
      9 O         138.6344  137.3544  162.4102 O.2     1  UNL1       -0.2727
     10 C         141.9198  138.1064  158.4554 C.ar    1  UNL1        0.1385
     11 C         142.8381  137.7171  159.5758 C.ar    1  UNL1        0.0382
     12 C         142.4369  137.9740  160.9981 C.ar    1  UNL1        0.0180
     13 C         141.1174  138.6203  161.3001 C.ar    1  UNL1        0.0541
     14 C         140.1991  139.0096  160.1798 C.ar    1  UNL1        0.0180
     15 C         140.6003  138.7527  158.7574 C.ar    1  UNL1        0.0382
     16 O         142.3210  137.8495  157.0331 O.3     1  UNL1       -0.4791
     17 N         142.1922  133.6663  155.3795 N.3     1  UNL1       -0.2737
     18 C         143.3480  134.1009  156.2312 C.3     1  UNL1        0.0758
     19 C         143.3909  135.4953  156.7824 C.3     1  UNL1        0.0609
     20 C         142.2781  136.4551  156.4819 C.3     1  UNL1        0.1687
     21 C         141.1223  136.0205  155.6303 C.3     1  UNL1        0.0609
     22 C         141.0794  134.6261  155.0791 C.3     1  UNL1        0.0758
     23 C         143.4096  131.6170  154.3460 C.3     1  UNL1        0.0173
     24 C         142.1493  132.2719  154.8283 C.3     1  UNL1        0.0576
     25 C         140.8461  131.5324  154.7595 C.3     1  UNL1        0.0173
     26 C         140.3529  140.5377  167.8567 C.ar    1  UNL1        0.0536
     27 C         141.4788  139.9564  168.6595 C.ar    1  UNL1        0.0052
     28 C         142.3190  140.8462  169.5267 C.ar    1  UNL1        0.0104
     29 C         142.0335  142.3174  169.5912 C.ar    1  UNL1        0.0685
     30 C         140.9076  142.8987  168.7884 C.ar    1  UNL1        0.0104
     31 C         140.0673  142.0088  167.9211 C.ar    1  UNL1        0.0052
     32 C         142.8737  143.2072  170.4584 C.1     1  UNL1        0.1004
     33 N         143.7140  144.0971  171.3256 N.1     1  UNL1       -0.1908
@<TRIPOS>BOND
     1    23    24    1
     2    24    25    1
     3    24    17    1
     4    17    18    1
     5    18    19    1
     6    19    20    1
     7    20    16    1
     8    16    10    1
     9    10    11   ar
    10    11    12   ar
    11    12    13   ar
    12    13     1    1
    13     1     2    1
    14     2     3    1
    15     3     4    1
    16     4     5   am
    17     5     6    2
    18     5    26    1
    19    26    27   ar
    20    27    28   ar
    21    28    29   ar
    22    29    32    1
    23    32    33    3
    24    29    30   ar
    25    30    31   ar
    26     4     7    1
    27     7     8    1
    28     8     9    2
    29    13    14   ar
    30    14    15   ar
    31    20    21    1
    32    21    22    1
    33    22    17    1
    34    15    10   ar
    35     8     1   am
    36    31    26   ar
@<TRIPOS>MOLECULE
*****
 33 36 0 0 0
SMALL
GASTEIGER

@<TRIPOS>ATOM
      1 N         141.8941  143.8027  162.6321 N.am    1  UNL1       -0.2555
      2 C         140.8022  143.1562  163.4318 C.3     1  UNL1        0.1197
      3 C         141.0550  142.7465  164.8524 C.3     1  UNL1        0.1160
      4 N         142.3998  142.9834  165.4733 N.am    1  UNL1       -0.2660
      5 C         142.6526  142.5737  166.8940 C.2     1  UNL1        0.2494
      6 O         143.9974  142.8106  167.5149 O.2     1  UNL1       -0.2699
      7 C         143.4917  143.6300  164.6736 C.3     1  UNL1        0.1799
      8 C         143.2389  144.0396  163.2530 C.2     1  UNL1        0.2497
      9 O         144.3308  144.6862  162.4531 O.2     1  UNL1       -0.2727
     10 C         141.1357  145.0318  158.3700 C.ar    1  UNL1        0.1385
     11 C         142.1308  143.9510  158.6733 C.ar    1  UNL1        0.0382
     12 C         142.3835  143.5413  160.0939 C.ar    1  UNL1        0.0180
     13 C         141.6413  144.2124  161.2114 C.ar    1  UNL1        0.0541
     14 C         140.6463  145.2932  160.9082 C.ar    1  UNL1        0.0180
     15 C         140.3935  145.7029  159.4875 C.ar    1  UNL1        0.0382
     16 O         140.8830  145.4414  156.9494 O.3     1  UNL1       -0.4791
     17 N         137.5065  143.5720  154.6354 N.3     1  UNL1       -0.2737
     18 C         137.5304  145.0547  154.8613 C.3     1  UNL1        0.0758
     19 C         138.6559  145.6778  155.6326 C.3     1  UNL1        0.0609
     20 C         139.7575  144.8183  156.1781 C.3     1  UNL1        0.1687
     21 C         139.7336  143.3356  155.9522 C.3     1  UNL1        0.0609
     22 C         138.6081  142.7125  155.1809 C.3     1  UNL1        0.0758
     23 C         135.5199  141.9026  154.5073 C.3     1  UNL1        0.0173
     24 C         136.3809  142.9489  153.8641 C.3     1  UNL1        0.0576
     25 C         136.1165  143.3720  152.4496 C.3     1  UNL1        0.0173
     26 C         141.5607  141.9272  167.6938 C.ar    1  UNL1        0.0536
     27 C         141.1294  140.5255  167.3785 C.ar    1  UNL1        0.0052
     28 C         140.0375  139.8790  168.1782 C.ar    1  UNL1        0.0104
     29 C         139.3768  140.6341  169.2933 C.ar    1  UNL1        0.0685
     30 C         139.8080  142.0357  169.6086 C.ar    1  UNL1        0.0104
     31 C         140.9000  142.6823  168.8088 C.ar    1  UNL1        0.0052
     32 C         138.2848  139.9875  170.0930 C.1     1  UNL1        0.1004
     33 N         137.1928  139.3410  170.8928 N.1     1  UNL1       -0.1908
@<TRIPOS>BOND
     1    23    24    1
     2    24    25    1
     3    24    17    1
     4    17    18    1
     5    18    19    1
     6    19    20    1
     7    20    16    1
     8    16    10    1
     9    10    11   ar
    10    11    12   ar
    11    12    13   ar
    12    13     1    1
    13     1     2    1
    14     2     3    1
    15     3     4    1
    16     4     5   am
    17     5     6    2
    18     5    26    1
    19    26    27   ar
    20    27    28   ar
    21    28    29   ar
    22    29    32    1
    23    32    33    3
    24    29    30   ar
    25    30    31   ar
    26     4     7    1
    27     7     8    1
    28     8     9    2
    29    13    14   ar
    30    14    15   ar
    31    20    21    1
    32    21    22    1
    33    22    17    1
    34    15    10   ar
    35     8     1   am
    36    31    26   ar
@<TRIPOS>MOLECULE
*****
 33 36 0 0 0
SMALL
GASTEIGER

@<TRIPOS>ATOM
      1 N         141.9550  141.7996  161.0948 N.am    1  UNL1       -0.2555
      2 C         141.2634  142.3964  162.2846 C.3     1  UNL1        0.1197
      3 C         141.5405  141.8627  163.6588 C.3     1  UNL1        0.1160
      4 N         142.5091  140.7323  163.8432 N.am    1  UNL1       -0.2660
      5 C         142.7861  140.1987  165.2175 C.2     1  UNL1        0.2494
      6 O         143.7547  139.0683  165.4019 O.2     1  UNL1       -0.2699
      7 C         143.2006  140.1356  162.6535 C.3     1  UNL1        0.1799
      8 C         142.9236  140.6692  161.2793 C.2     1  UNL1        0.2497
      9 O         143.6152  140.0724  160.0894 O.2     1  UNL1       -0.2727
     10 C         141.1239  143.4004  156.9721 C.ar    1  UNL1        0.1385
     11 C         140.2030  142.3857  157.5824 C.ar    1  UNL1        0.0382
     12 C         140.4801  141.8521  158.9566 C.ar    1  UNL1        0.0180
     13 C         141.6780  142.3332  159.7206 C.ar    1  UNL1        0.0541
     14 C         142.5988  143.3479  159.1103 C.ar    1  UNL1        0.0180
     15 C         142.3218  143.8815  157.7360 C.ar    1  UNL1        0.0382
     16 O         140.8469  143.9340  155.5978 O.3     1  UNL1       -0.4791
     17 N         139.5711  148.2159  155.0616 N.3     1  UNL1       -0.2737
     18 C         139.1511  147.4557  156.2846 C.3     1  UNL1        0.0758
     19 C         139.5763  146.0284  156.4633 C.3     1  UNL1        0.0609
     20 C         140.4216  145.3613  155.4191 C.3     1  UNL1        0.1687
     21 C         140.8416  146.1215  154.1962 C.3     1  UNL1        0.0609
     22 C         140.4164  147.5488  154.0174 C.3     1  UNL1        0.0758
     23 C         138.3634  150.3332  155.9607 C.3     1  UNL1        0.0173
     24 C         139.1458  149.6432  154.8829 C.3     1  UNL1        0.0576
     25 C         139.5030  150.3805  153.6264 C.3     1  UNL1        0.0173
     26 C         142.0945  140.7955  166.4073 C.ar    1  UNL1        0.0536
     27 C         140.7293  140.3143  166.8006 C.ar    1  UNL1        0.0052
     28 C         140.0378  140.9111  167.9904 C.ar    1  UNL1        0.0104
     29 C         140.7114  141.9891  168.7868 C.ar    1  UNL1        0.0685
     30 C         142.0766  142.4702  168.3935 C.ar    1  UNL1        0.0104
     31 C         142.7682  141.8734  167.2036 C.ar    1  UNL1        0.0052
     32 C         140.0199  142.5859  169.9766 C.1     1  UNL1        0.1004
     33 N         139.3283  143.1827  171.1664 N.1     1  UNL1       -0.1908
@<TRIPOS>BOND
     1    23    24    1
     2    24    25    1
     3    24    17    1
     4    17    18    1
     5    18    19    1
     6    19    20    1
     7    20    16    1
     8    16    10    1
     9    10    11   ar
    10    11    12   ar
    11    12    13   ar
    12    13     1    1
    13     1     2    1
    14     2     3    1
    15     3     4    1
    16     4     5   am
    17     5     6    2
    18     5    26    1
    19    26    27   ar
    20    27    28   ar
    21    28    29   ar
    22    29    32    1
    23    32    33    3
    24    29    30   ar
    25    30    31   ar
    26     4     7    1
    27     7     8    1
    28     8     9    2
    29    13    14   ar
    30    14    15   ar
    31    20    21    1
    32    21    22    1
    33    22    17    1
    34    15    10   ar
    35     8     1   am
    36    31    26   ar
@<TRIPOS>MOLECULE
*****
 33 36 0 0 0
SMALL
GASTEIGER

@<TRIPOS>ATOM
      1 N         142.9526  140.9671  161.8000 N.am    1  UNL1       -0.2555
      2 C         142.2078  141.7435  162.8452 C.3     1  UNL1        0.1197
      3 C         142.1871  141.2609  164.2653 C.3     1  UNL1        0.1160
      4 N         142.9113  140.0020  164.6402 N.am    1  UNL1       -0.2660
      5 C         142.8906  139.5194  166.0604 C.2     1  UNL1        0.2494
      6 O         143.6148  138.2605  166.4353 O.2     1  UNL1       -0.2699
      7 C         143.6561  139.2256  163.5951 C.3     1  UNL1        0.1799
      8 C         143.6768  139.7081  162.1750 C.2     1  UNL1        0.2497
      9 O         144.4216  138.9317  161.1298 O.2     1  UNL1       -0.2727
     10 C         143.0146  142.4146  157.5396 C.ar    1  UNL1        0.1385
     11 C         141.9219  141.4981  158.0045 C.ar    1  UNL1        0.0382
     12 C         141.9013  141.0156  159.4246 C.ar    1  UNL1        0.0180
     13 C         142.9733  141.4496  160.3799 C.ar    1  UNL1        0.0541
     14 C         144.0659  142.3661  159.9150 C.ar    1  UNL1        0.0180
     15 C         144.0866  142.8486  158.4948 C.ar    1  UNL1        0.0382
     16 O         143.0353  142.8971  156.1195 O.3     1  UNL1       -0.4791
     17 N         140.7422  146.5929  154.9652 N.3     1  UNL1       -0.2737
     18 C         141.4193  145.7702  153.9095 C.3     1  UNL1        0.0758
     19 C         142.1836  144.5382  154.2943 C.3     1  UNL1        0.0609
     20 C         142.2709  144.1290  155.7347 C.3     1  UNL1        0.1687
     21 C         141.5938  144.9518  156.7904 C.3     1  UNL1        0.0609
     22 C         140.8294  146.1837  156.4057 C.3     1  UNL1        0.0758
     23 C         140.2626  148.5072  153.2754 C.3     1  UNL1        0.0173
     24 C         139.9778  147.8249  154.5805 C.3     1  UNL1        0.0576
     25 C         138.9286  148.3745  155.5008 C.3     1  UNL1        0.0173
     26 C         142.1458  140.2959  167.1055 C.ar    1  UNL1        0.0536
     27 C         140.7242  139.9441  167.4301 C.ar    1  UNL1        0.0052
     28 C         139.9794  140.7205  168.4753 C.ar    1  UNL1        0.0104
     29 C         140.6561  141.8488  169.1958 C.ar    1  UNL1        0.0685
     30 C         142.0777  142.2005  168.8712 C.ar    1  UNL1        0.0104
     31 C         142.8225  141.4241  167.8260 C.ar    1  UNL1        0.0052
     32 C         139.9113  142.6252  170.2410 C.1     1  UNL1        0.1004
     33 N         139.1664  143.4017  171.2861 N.1     1  UNL1       -0.1908
@<TRIPOS>BOND
     1    23    24    1
     2    24    25    1
     3    24    17    1
     4    17    18    1
     5    18    19    1
     6    19    20    1
     7    20    16    1
     8    16    10    1
     9    10    11   ar
    10    11    12   ar
    11    12    13   ar
    12    13     1    1
    13     1     2    1
    14     2     3    1
    15     3     4    1
    16     4     5   am
    17     5     6    2
    18     5    26    1
    19    26    27   ar
    20    27    28   ar
    21    28    29   ar
    22    29    32    1
    23    32    33    3
    24    29    30   ar
    25    30    31   ar
    26     4     7    1
    27     7     8    1
    28     8     9    2
    29    13    14   ar
    30    14    15   ar
    31    20    21    1
    32    21    22    1
    33    22    17    1
    34    15    10   ar
    35     8     1   am
    36    31    26   ar
@<TRIPOS>MOLECULE
*****
 33 36 0 0 0
SMALL
GASTEIGER

@<TRIPOS>ATOM
      1 N         142.0492  143.2015  160.1182 N.am    1  UNL1       -0.2555
      2 C         141.3341  142.8766  161.3961 C.3     1  UNL1        0.1197
      3 C         142.0787  142.2381  162.5308 C.3     1  UNL1        0.1160
      4 N         143.5386  141.9244  162.3877 N.am    1  UNL1       -0.2660
      5 C         144.2832  141.2858  163.5225 C.2     1  UNL1        0.2494
      6 O         145.7431  140.9721  163.3794 O.2     1  UNL1       -0.2699
      7 C         144.2537  142.2493  161.1099 C.3     1  UNL1        0.1799
      8 C         143.5091  142.8878  159.9751 C.2     1  UNL1        0.2497
      9 O         144.2242  143.2127  158.6972 O.2     1  UNL1       -0.2727
     10 C         139.8153  145.1173  156.7138 C.ar    1  UNL1        0.1385
     11 C         140.6176  145.9652  157.6560 C.ar    1  UNL1        0.0382
     12 C         141.3622  145.3266  158.7907 C.ar    1  UNL1        0.0180
     13 C         141.3046  143.8401  158.9834 C.ar    1  UNL1        0.0541
     14 C         140.5023  142.9922  158.0414 C.ar    1  UNL1        0.0180
     15 C         139.7577  143.6308  156.9065 C.ar    1  UNL1        0.0382
     16 O         139.0707  145.7559  155.5791 O.3     1  UNL1       -0.4791
     17 N         139.5773  150.1487  154.7446 N.3     1  UNL1       -0.2737
     18 C         140.3146  149.1382  153.9170 C.3     1  UNL1        0.0758
     19 C         140.1457  147.6739  154.1951 C.3     1  UNL1        0.0609
     20 C         139.2395  147.2202  155.3009 C.3     1  UNL1        0.1687
     21 C         138.5022  148.2307  156.1286 C.3     1  UNL1        0.0609
     22 C         138.6711  149.6950  155.8505 C.3     1  UNL1        0.0758
     23 C         141.0365  152.1245  153.8980 C.3     1  UNL1        0.0173
     24 C         139.7461  151.6130  154.4665 C.3     1  UNL1        0.0576
     25 C         138.6246  152.5658  154.7568 C.3     1  UNL1        0.0173
     26 C         143.5681  140.9609  164.8004 C.ar    1  UNL1        0.0536
     27 C         143.0319  139.5788  165.0293 C.ar    1  UNL1        0.0052
     28 C         142.3167  139.2540  166.3072 C.ar    1  UNL1        0.0104
     29 C         142.1377  140.3112  167.3562 C.ar    1  UNL1        0.0685
     30 C         142.6739  141.6933  167.1272 C.ar    1  UNL1        0.0104
     31 C         143.3891  142.0181  165.8493 C.ar    1  UNL1        0.0052
     32 C         141.4225  139.9863  168.6340 C.1     1  UNL1        0.1004
     33 N         140.7074  139.6614  169.9119 N.1     1  UNL1       -0.1908
@<TRIPOS>BOND
     1    23    24    1
     2    24    25    1
     3    24    17    1
     4    17    18    1
     5    18    19    1
     6    19    20    1
     7    20    16    1
     8    16    10    1
     9    10    11   ar
    10    11    12   ar
    11    12    13   ar
    12    13     1    1
    13     1     2    1
    14     2     3    1
    15     3     4    1
    16     4     5   am
    17     5     6    2
    18     5    26    1
    19    26    27   ar
    20    27    28   ar
    21    28    29   ar
    22    29    32    1
    23    32    33    3
    24    29    30   ar
    25    30    31   ar
    26     4     7    1
    27     7     8    1
    28     8     9    2
    29    13    14   ar
    30    14    15   ar
    31    20    21    1
    32    21    22    1
    33    22    17    1
    34    15    10   ar
    35     8     1   am
    36    31    26   ar
@<TRIPOS>MOLECULE
*****
 33 36 0 0 0
SMALL
GASTEIGER

@<TRIPOS>ATOM
      1 N         141.3417  144.0830  159.1727 N.am    1  UNL1       -0.2555
      2 C         141.6126  145.4659  158.6588 C.3     1  UNL1        0.1197
      3 C         140.8323  145.9995  157.4943 C.3     1  UNL1        0.1160
      4 N         139.7810  145.1502  156.8435 N.am    1  UNL1       -0.2660
      5 C         139.0006  145.6839  155.6789 C.2     1  UNL1        0.2494
      6 O         137.9493  144.8346  155.0281 O.2     1  UNL1       -0.2699
      7 C         139.5100  143.7673  157.3574 C.3     1  UNL1        0.1799
      8 C         140.2904  143.2337  158.5219 C.2     1  UNL1        0.2497
      9 O         140.0194  141.8507  159.0358 O.2     1  UNL1       -0.2727
     10 C         143.6826  142.4820  162.6665 C.ar    1  UNL1        0.1385
     11 C         142.3467  143.1261  162.8908 C.ar    1  UNL1        0.0382
     12 C         141.5664  143.6598  161.7262 C.ar    1  UNL1        0.0180
     13 C         142.1220  143.5493  160.3373 C.ar    1  UNL1        0.0541
     14 C         143.4579  142.9051  160.1130 C.ar    1  UNL1        0.0180
     15 C         144.2383  142.3714  161.2776 C.ar    1  UNL1        0.0382
     16 O         144.4629  141.9483  163.8311 O.3     1  UNL1       -0.4791
     17 N         142.3075  140.4377  167.4811 N.3     1  UNL1       -0.2737
     18 C         142.7560  141.8674  167.4130 C.3     1  UNL1        0.0758
     19 C         143.4745  142.3709  166.1964 C.3     1  UNL1        0.0609
     20 C         143.7444  141.4448  165.0478 C.3     1  UNL1        0.1687
     21 C         143.2959  140.0151  165.1159 C.3     1  UNL1        0.0609
     22 C         142.5774  139.5115  166.3325 C.3     1  UNL1        0.0758
     23 C         142.3524  139.2379  169.7851 C.3     1  UNL1        0.0173
     24 C         141.5890  139.9342  168.6977 C.3     1  UNL1        0.0576
     25 C         140.1071  140.1269  168.8271 C.3     1  UNL1        0.0173
     26 C         139.2716  147.0668  155.1650 C.ar    1  UNL1        0.0536
     27 C         140.1465  147.2620  153.9623 C.ar    1  UNL1        0.0052
     28 C         140.4174  148.6449  153.4485 C.ar    1  UNL1        0.0104
     29 C         139.8135  149.8327  154.1374 C.ar    1  UNL1        0.0685
     30 C         138.9386  149.6375  155.3401 C.ar    1  UNL1        0.0104
     31 C         138.6677  148.2545  155.8539 C.ar    1  UNL1        0.0052
     32 C         140.0845  151.2156  153.6235 C.1     1  UNL1        0.1004
     33 N         140.3554  152.5986  153.1096 N.1     1  UNL1       -0.1908
@<TRIPOS>BOND
     1    23    24    1
     2    24    25    1
     3    24    17    1
     4    17    18    1
     5    18    19    1
     6    19    20    1
     7    20    16    1
     8    16    10    1
     9    10    11   ar
    10    11    12   ar
    11    12    13   ar
    12    13     1    1
    13     1     2    1
    14     2     3    1
    15     3     4    1
    16     4     5   am
    17     5     6    2
    18     5    26    1
    19    26    27   ar
    20    27    28   ar
    21    28    29   ar
    22    29    32    1
    23    32    33    3
    24    29    30   ar
    25    30    31   ar
    26     4     7    1
    27     7     8    1
    28     8     9    2
    29    13    14   ar
    30    14    15   ar
    31    20    21    1
    32    21    22    1
    33    22    17    1
    34    15    10   ar
    35     8     1   am
    36    31    26   ar
@<TRIPOS>MOLECULE
*****
 33 36 0 0 0
SMALL
GASTEIGER

@<TRIPOS>ATOM
      1 N         140.6720  140.0198  160.5009 N.am    1  UNL1       -0.2555
      2 C         140.7193  139.4359  161.8817 C.3     1  UNL1        0.1197
      3 C         140.3928  140.2917  163.0695 C.3     1  UNL1        0.1160
      4 N         140.0190  141.7315  162.8765 N.am    1  UNL1       -0.2660
      5 C         139.6925  142.5874  164.0643 C.2     1  UNL1        0.2494
      6 O         139.3187  144.0272  163.8713 O.2     1  UNL1       -0.2699
      7 C         139.9717  142.3155  161.4956 C.3     1  UNL1        0.1799
      8 C         140.2982  141.4596  160.3079 C.2     1  UNL1        0.2497
      9 O         140.2510  142.0435  158.9269 O.2     1  UNL1       -0.2727
     10 C         141.6516  137.4523  156.9374 C.ar    1  UNL1        0.1385
     11 C         142.7534  138.1155  157.7096 C.ar    1  UNL1        0.0382
     12 C         142.4269  138.9713  158.8974 C.ar    1  UNL1        0.0180
     13 C         140.9985  139.1639  159.3130 C.ar    1  UNL1        0.0541
     14 C         139.8968  138.5007  158.5409 C.ar    1  UNL1        0.0180
     15 C         140.2233  137.6449  157.3530 C.ar    1  UNL1        0.0382
     16 O         141.9781  136.5964  155.7496 O.3     1  UNL1       -0.4791
     17 N         142.5330  132.1598  156.2574 N.3     1  UNL1       -0.2737
     18 C         143.3454  133.1161  157.0791 C.3     1  UNL1        0.0758
     19 C         143.1605  134.5950  156.9099 C.3     1  UNL1        0.0609
     20 C         142.1631  135.1175  155.9188 C.3     1  UNL1        0.1687
     21 C         141.3507  134.1612  155.0971 C.3     1  UNL1        0.0609
     22 C         141.5357  132.6823  155.2663 C.3     1  UNL1        0.0758
     23 C         142.0551  129.7285  155.4762 C.3     1  UNL1        0.0173
     24 C         142.7180  130.6809  156.4266 C.3     1  UNL1        0.0576
     25 C         143.5659  130.1544  157.5464 C.3     1  UNL1        0.0173
     26 C         139.7398  142.0034  165.4451 C.ar    1  UNL1        0.0536
     27 C         139.0637  140.6950  165.7297 C.ar    1  UNL1        0.0052
     28 C         139.1110  140.1111  167.1105 C.ar    1  UNL1        0.0104
     29 C         139.8344  140.8356  168.2069 C.ar    1  UNL1        0.0685
     30 C         140.5105  142.1440  167.9223 C.ar    1  UNL1        0.0104
     31 C         140.4631  142.7279  166.5414 C.ar    1  UNL1        0.0052
     32 C         139.8817  140.2516  169.5877 C.1     1  UNL1        0.1004
     33 N         139.9290  139.6677  170.9686 N.1     1  UNL1       -0.1908
@<TRIPOS>BOND
     1    23    24    1
     2    24    25    1
     3    24    17    1
     4    17    18    1
     5    18    19    1
     6    19    20    1
     7    20    16    1
     8    16    10    1
     9    10    11   ar
    10    11    12   ar
    11    12    13   ar
    12    13     1    1
    13     1     2    1
    14     2     3    1
    15     3     4    1
    16     4     5   am
    17     5     6    2
    18     5    26    1
    19    26    27   ar
    20    27    28   ar
    21    28    29   ar
    22    29    32    1
    23    32    33    3
    24    29    30   ar
    25    30    31   ar
    26     4     7    1
    27     7     8    1
    28     8     9    2
    29    13    14   ar
    30    14    15   ar
    31    20    21    1
    32    21    22    1
    33    22    17    1
    34    15    10   ar
    35     8     1   am
    36    31    26   ar
@<TRIPOS>MOLECULE
*****
 33 36 0 0 0
SMALL
GASTEIGER

@<TRIPOS>ATOM
      1 N         140.6972  139.1643  161.9789 N.am    1  UNL1       -0.2555
      2 C         141.5062  139.9756  162.9471 C.3     1  UNL1        0.1197
      3 C         141.0194  140.1705  164.3524 C.3     1  UNL1        0.1160
      4 N         139.7236  139.5542  164.7895 N.am    1  UNL1       -0.2660
      5 C         139.2368  139.7492  166.1949 C.2     1  UNL1        0.2494
      6 O         137.9410  139.1330  166.6321 O.2     1  UNL1       -0.2699
      7 C         138.9146  138.7430  163.8214 C.3     1  UNL1        0.1799
      8 C         139.4014  138.5481  162.4161 C.2     1  UNL1        0.2497
      9 O         138.5924  137.7368  161.4478 O.2     1  UNL1       -0.2727
     10 C         142.1576  138.5794  157.7628 C.ar    1  UNL1        0.1385
     11 C         141.0700  139.5722  158.0489 C.ar    1  UNL1        0.0382
     12 C         140.5833  139.7671  159.4543 C.ar    1  UNL1        0.0180
     13 C         141.1840  138.9694  160.5735 C.ar    1  UNL1        0.0541
     14 C         142.2715  137.9766  160.2874 C.ar    1  UNL1        0.0180
     15 C         142.7583  137.7817  158.8820 C.ar    1  UNL1        0.0382
     16 O         142.6443  138.3845  156.3574 O.3     1  UNL1       -0.4791
     17 N         145.9555  140.9696  154.7441 N.3     1  UNL1       -0.2737
     18 C         145.3092  139.9421  153.8630 C.3     1  UNL1        0.0758
     19 C         144.2054  139.0804  154.4008 C.3     1  UNL1        0.0609
     20 C         143.7480  139.2462  155.8197 C.3     1  UNL1        0.1687
     21 C         144.3944  140.2737  156.7008 C.3     1  UNL1        0.0609
     22 C         145.4981  141.1354  156.1630 C.3     1  UNL1        0.0758
     23 C         147.5073  143.0409  154.9721 C.3     1  UNL1        0.0173
     24 C         147.0593  141.8314  154.2064 C.3     1  UNL1        0.0576
     25 C         147.7150  141.4836  152.9029 C.3     1  UNL1        0.0173
     26 C         140.0457  140.5605  167.1631 C.ar    1  UNL1        0.0536
     27 C         139.9524  142.0575  167.1488 C.ar    1  UNL1        0.0052
     28 C         140.7613  142.8687  168.1169 C.ar    1  UNL1        0.0104
     29 C         141.6638  142.1829  169.0995 C.ar    1  UNL1        0.0685
     30 C         141.7572  140.6859  169.1139 C.ar    1  UNL1        0.0104
     31 C         140.9481  139.8747  168.1456 C.ar    1  UNL1        0.0052
     32 C         142.4728  142.9942  170.0677 C.1     1  UNL1        0.1004
     33 N         143.2818  143.8054  171.0359 N.1     1  UNL1       -0.1908
@<TRIPOS>BOND
     1    23    24    1
     2    24    25    1
     3    24    17    1
     4    17    18    1
     5    18    19    1
     6    19    20    1
     7    20    16    1
     8    16    10    1
     9    10    11   ar
    10    11    12   ar
    11    12    13   ar
    12    13     1    1
    13     1     2    1
    14     2     3    1
    15     3     4    1
    16     4     5   am
    17     5     6    2
    18     5    26    1
    19    26    27   ar
    20    27    28   ar
    21    28    29   ar
    22    29    32    1
    23    32    33    3
    24    29    30   ar
    25    30    31   ar
    26     4     7    1
    27     7     8    1
    28     8     9    2
    29    13    14   ar
    30    14    15   ar
    31    20    21    1
    32    21    22    1
    33    22    17    1
    34    15    10   ar
    35     8     1   am
    36    31    26   ar
