@<TRIPOS>MOLECULE
*****
 30 34 0 0 0
SMALL
GASTEIGER

@<TRIPOS>ATOM
      1 C         141.2951  140.0444  166.5823 C.ar    1  UNL1       -0.0059
      2 C         141.1685  140.6318  165.2079 C.ar    1  UNL1        0.0002
      3 C         142.2203  140.3561  164.1746 C.ar    1  UNL1        0.0373
      4 C         143.3988  139.4930  164.5157 C.ar    1  UNL1        0.1477
      5 C         143.5254  138.9056  165.8901 C.ar    1  UNL1        0.0373
      6 C         142.4736  139.1813  166.9234 C.ar    1  UNL1        0.0002
      7 C         140.2433  140.3200  167.6156 C.3     1  UNL1        0.0991
      8 C         140.2570  140.4720  167.6522 C.3     1  UNL1        0.0742
      9 C         140.2561  141.9333  167.3132 C.3     1  UNL1        0.0356
     10 C         140.5234  142.8267  168.5005 C.3     1  UNL1        0.0594
     11 C         140.8068  143.4559  169.8323 C.3     1  UNL1        0.0174
     12 C         140.9525  142.3569  170.8426 C.3     1  UNL1        0.0174
     13 C         140.7591  141.0483  170.1353 C.3     1  UNL1        0.0594
     14 C         140.5085  140.0296  169.0632 C.3     1  UNL1        0.0356
     15 N         140.4939  141.3387  168.6877 N.3     1  UNL1       -0.2715
     16 C         138.4975  137.6182  165.5285 C.3     1  UNL1        0.0946
     17 C         138.7482  138.6369  166.6006 C.2     1  UNL1        0.2229
     18 O         137.7406  138.8392  167.6932 O.2     1  UNL1       -0.2751
     19 N         140.0064  139.4533  166.5801 N.am    1  UNL1       -0.3059
     20 H         140.6677  139.3206  165.8629 H       1  UNL1        0.1494
     21 O         144.4506  139.2174  163.4824 O.3     1  UNL1       -0.4313
     22 C         144.0842  139.1897  162.0281 C.ar    1  UNL1        0.2642
     23 N         144.2883  140.3050  161.0461 N.ar    1  UNL1       -0.1859
     24 C         143.7797  139.8464  159.7115 C.ar    1  UNL1        0.1720
     25 N         143.7217  140.5218  158.3734 N.ar    1  UNL1       -0.2245
     26 C         143.1452  139.7985  157.1926 C.ar    1  UNL1        0.1006
     27 C         142.6267  138.3997  157.3499 C.ar    1  UNL1        0.0213
     28 C         142.6847  137.7244  158.6879 C.ar    1  UNL1        0.0113
     29 C         143.2612  138.4477  159.8687 C.ar    1  UNL1        0.0697
     30 S         143.4494  138.0418  161.3005 S.2     1  UNL1       -0.0267
@<TRIPOS>BOND
     1    16    17    1
     2    17    18    2
     3    17    19   am
     4    19     8    1
     5     8     9    1
     6     9    10    1
     7    10    11    1
     8    11    12    1
     9    12    13    1
    10    13    14    1
    11    13    15    1
    12    15     7    1
    13     7     1    1
    14     1     2   ar
    15     2     3   ar
    16     3     4   ar
    17     4    21    1
    18    21    22    1
    19    22    23   ar
    20    23    24   ar
    21    24    25   ar
    22    25    26   ar
    23    26    27   ar
    24    27    28   ar
    25    28    29   ar
    26    29    30   ar
    27     4     5   ar
    28     5     6   ar
    29    14     8    1
    30     6     1   ar
    31    15    10    1
    32    30    22   ar
    33    29    24   ar
    34    19    20    1
@<TRIPOS>MOLECULE
*****
 30 34 0 0 0
SMALL
GASTEIGER

@<TRIPOS>ATOM
      1 C         140.7669  142.7776  166.0951 C.ar    1  UNL1       -0.0059
      2 C         141.8698  142.7631  165.0786 C.ar    1  UNL1        0.0002
      3 C         141.7931  143.6563  163.8759 C.ar    1  UNL1        0.0373
      4 C         140.6135  144.5639  163.6898 C.ar    1  UNL1        0.1477
      5 C         139.5106  144.5784  164.7064 C.ar    1  UNL1        0.0373
      6 C         139.5873  143.6852  165.9090 C.ar    1  UNL1        0.0002
      7 C         140.8436  141.8844  167.2978 C.3     1  UNL1        0.0991
      8 C         140.8629  141.9685  167.4289 C.3     1  UNL1        0.0742
      9 C         140.4034  142.9478  168.4682 C.3     1  UNL1        0.0356
     10 C         141.4251  143.2005  169.5505 C.3     1  UNL1        0.0594
     11 C         142.6077  143.2556  170.4716 C.3     1  UNL1        0.0174
     12 C         143.6589  142.3316  169.9321 C.3     1  UNL1        0.0174
     13 C         143.1261  141.7055  168.6775 C.3     1  UNL1        0.0594
     14 C         142.2242  141.3473  167.5336 C.3     1  UNL1        0.0356
     15 N         141.7455  142.2425  168.4417 N.3     1  UNL1       -0.2715
     16 C         138.2269  140.0060  165.2042 C.3     1  UNL1        0.0946
     17 C         139.1287  140.3641  166.3480 C.2     1  UNL1        0.2229
     18 O         139.1982  139.4759  167.5547 O.2     1  UNL1       -0.2751
     19 N         139.9610  141.6104  166.2851 N.am    1  UNL1       -0.3059
     20 H         139.9154  142.1934  165.4931 H       1  UNL1        0.1494
     21 O         140.5367  145.4571  162.4872 O.3     1  UNL1       -0.4313
     22 C         140.2256  144.8758  161.1399 C.ar    1  UNL1        0.2642
     23 N         139.2890  143.7366  160.8660 N.ar    1  UNL1       -0.1859
     24 C         139.2810  143.4883  159.3867 C.ar    1  UNL1        0.1720
     25 N         138.5457  142.4920  158.5402 N.ar    1  UNL1       -0.2245
     26 C         138.7421  142.4815  157.0532 C.ar    1  UNL1        0.1006
     27 C         139.6738  143.4672  156.4127 C.ar    1  UNL1        0.0213
     28 C         140.4091  144.4635  157.2593 C.ar    1  UNL1        0.0113
     29 C         140.2127  144.4741  158.7463 C.ar    1  UNL1        0.0697
     30 S         140.7965  145.3315  159.8298 S.2     1  UNL1       -0.0267
@<TRIPOS>BOND
     1    16    17    1
     2    17    18    2
     3    17    19   am
     4    19     8    1
     5     8     9    1
     6     9    10    1
     7    10    11    1
     8    11    12    1
     9    12    13    1
    10    13    14    1
    11    13    15    1
    12    15     7    1
    13     7     1    1
    14     1     2   ar
    15     2     3   ar
    16     3     4   ar
    17     4    21    1
    18    21    22    1
    19    22    23   ar
    20    23    24   ar
    21    24    25   ar
    22    25    26   ar
    23    26    27   ar
    24    27    28   ar
    25    28    29   ar
    26    29    30   ar
    27     4     5   ar
    28     5     6   ar
    29    14     8    1
    30     6     1   ar
    31    15    10    1
    32    30    22   ar
    33    29    24   ar
    34    19    20    1
@<TRIPOS>MOLECULE
*****
 30 34 0 0 0
SMALL
GASTEIGER

@<TRIPOS>ATOM
      1 C         141.2505  140.0843  166.5967 C.ar    1  UNL1       -0.0059
      2 C         142.4215  139.2108  166.9370 C.ar    1  UNL1        0.0002
      3 C         143.4896  138.9564  165.9150 C.ar    1  UNL1        0.0373
      4 C         143.3866  139.5756  164.5526 C.ar    1  UNL1        0.1477
      5 C         142.2156  140.4491  164.2123 C.ar    1  UNL1        0.0373
      6 C         141.1476  140.7034  165.2343 C.ar    1  UNL1        0.0002
      7 C         140.1824  140.3387  167.6188 C.3     1  UNL1        0.0991
      8 C         140.1957  140.4906  167.6556 C.3     1  UNL1        0.0742
      9 C         140.2132  141.9516  167.3157 C.3     1  UNL1        0.0356
     10 C         140.4470  142.8447  168.5102 C.3     1  UNL1        0.0594
     11 C         140.6909  143.4737  169.8499 C.3     1  UNL1        0.0174
     12 C         140.7986  142.3748  170.8652 C.3     1  UNL1        0.0174
     13 C         140.6213  141.0666  170.1530 C.3     1  UNL1        0.0594
     14 C         140.3997  140.0482  169.0742 C.3     1  UNL1        0.0356
     15 N         140.4039  141.3571  168.6975 N.3     1  UNL1       -0.2715
     16 C         138.5076  137.6174  165.5005 C.3     1  UNL1        0.0946
     17 C         138.7291  138.6358  166.5793 C.2     1  UNL1        0.2229
     18 O         137.7055  138.8177  167.6605 O.2     1  UNL1       -0.2751
     19 N         139.9742  139.4723  166.5768 N.am    1  UNL1       -0.3059
     20 H         140.6460  139.3529  165.8671 H       1  UNL1        0.1494
     21 O         144.4546  139.3212  163.5306 O.3     1  UNL1       -0.4313
     22 C         144.0947  139.2255  162.0775 C.ar    1  UNL1        0.2642
     23 N         143.6307  137.9906  161.3636 N.ar    1  UNL1       -0.1859
     24 C         143.3848  138.3498  159.9281 C.ar    1  UNL1        0.1720
     25 N         142.9171  137.5385  158.7564 N.ar    1  UNL1       -0.2245
     26 C         142.7615  138.1841  157.4115 C.ar    1  UNL1        0.1006
     27 C         143.0736  139.6410  157.2382 C.ar    1  UNL1        0.0213
     28 C         143.5413  140.4523  158.4099 C.ar    1  UNL1        0.0113
     29 C         143.6969  139.8067  159.7549 C.ar    1  UNL1        0.0697
     30 S         144.1357  140.3479  161.0833 S.2     1  UNL1       -0.0267
@<TRIPOS>BOND
     1    16    17    1
     2    17    18    2
     3    17    19   am
     4    19     8    1
     5     8     9    1
     6     9    10    1
     7    10    11    1
     8    11    12    1
     9    12    13    1
    10    13    14    1
    11    13    15    1
    12    15     7    1
    13     7     1    1
    14     1     2   ar
    15     2     3   ar
    16     3     4   ar
    17     4    21    1
    18    21    22    1
    19    22    23   ar
    20    23    24   ar
    21    24    25   ar
    22    25    26   ar
    23    26    27   ar
    24    27    28   ar
    25    28    29   ar
    26    29    30   ar
    27     4     5   ar
    28     5     6   ar
    29    14     8    1
    30     6     1   ar
    31    15    10    1
    32    30    22   ar
    33    29    24   ar
    34    19    20    1
@<TRIPOS>MOLECULE
*****
 30 34 0 0 0
SMALL
GASTEIGER

@<TRIPOS>ATOM
      1 C         140.8029  142.8220  166.0815 C.ar    1  UNL1       -0.0059
      2 C         139.5955  143.6859  165.8671 C.ar    1  UNL1        0.0002
      3 C         139.5314  144.6049  164.6832 C.ar    1  UNL1        0.0373
      4 C         140.6748  144.6600  163.7139 C.ar    1  UNL1        0.1477
      5 C         141.8822  143.7961  163.9283 C.ar    1  UNL1        0.0373
      6 C         141.9462  142.8772  165.1121 C.ar    1  UNL1        0.0002
      7 C         140.8669  141.9030  167.2653 C.3     1  UNL1        0.0991
      8 C         140.8862  141.9851  167.3977 C.3     1  UNL1        0.0742
      9 C         140.4328  142.9582  168.4453 C.3     1  UNL1        0.0356
     10 C         141.4480  143.1803  169.5404 C.3     1  UNL1        0.0594
     11 C         142.6224  143.2041  170.4732 C.3     1  UNL1        0.0174
     12 C         143.6636  142.2701  169.9315 C.3     1  UNL1        0.0174
     13 C         143.1328  141.6690  168.6639 C.3     1  UNL1        0.0594
     14 C         142.2363  141.3405  167.5070 C.3     1  UNL1        0.0356
     15 N         141.7634  142.2315  168.4222 N.3     1  UNL1       -0.2715
     16 C         138.2446  140.0917  165.1203 C.3     1  UNL1        0.0946
     17 C         139.1411  140.4202  166.2771 C.2     1  UNL1        0.2229
     18 O         139.1890  139.5124  167.4702 O.2     1  UNL1       -0.2751
     19 N         139.9897  141.6566  166.2409 N.am    1  UNL1       -0.3059
     20 H         139.9583  142.2524  165.4578 H       1  UNL1        0.1494
     21 O         140.6108  145.5789  162.5301 O.3     1  UNL1       -0.4313
     22 C         140.3362  145.0240  161.1638 C.ar    1  UNL1        0.2642
     23 N         140.6947  145.6733  159.8600 N.ar    1  UNL1       -0.1859
     24 C         140.2349  144.7729  158.7519 C.ar    1  UNL1        0.1720
     25 N         140.3184  144.8953  157.2592 N.ar    1  UNL1       -0.2245
     26 C         139.7593  143.8118  156.3855 C.ar    1  UNL1        0.1006
     27 C         139.1166  142.6060  157.0044 C.ar    1  UNL1        0.0213
     28 C         139.0330  142.4837  158.4971 C.ar    1  UNL1        0.0113
     29 C         139.5922  143.5672  159.3708 C.ar    1  UNL1        0.0697
     30 S         139.6548  143.7224  160.8614 S.2     1  UNL1       -0.0267
@<TRIPOS>BOND
     1    16    17    1
     2    17    18    2
     3    17    19   am
     4    19     8    1
     5     8     9    1
     6     9    10    1
     7    10    11    1
     8    11    12    1
     9    12    13    1
    10    13    14    1
    11    13    15    1
    12    15     7    1
    13     7     1    1
    14     1     2   ar
    15     2     3   ar
    16     3     4   ar
    17     4    21    1
    18    21    22    1
    19    22    23   ar
    20    23    24   ar
    21    24    25   ar
    22    25    26   ar
    23    26    27   ar
    24    27    28   ar
    25    28    29   ar
    26    29    30   ar
    27     4     5   ar
    28     5     6   ar
    29    14     8    1
    30     6     1   ar
    31    15    10    1
    32    30    22   ar
    33    29    24   ar
    34    19    20    1
@<TRIPOS>MOLECULE
*****
 30 34 0 0 0
SMALL
GASTEIGER

@<TRIPOS>ATOM
      1 C         140.0045  141.8861  165.6416 C.ar    1  UNL1       -0.0059
      2 C         138.7449  142.3874  164.9998 C.ar    1  UNL1        0.0002
      3 C         138.7814  143.6075  164.1280 C.ar    1  UNL1        0.0373
      4 C         140.0777  144.3263  163.8979 C.ar    1  UNL1        0.1477
      5 C         141.3375  143.8250  164.5397 C.ar    1  UNL1        0.0373
      6 C         141.3008  142.6049  165.4115 C.ar    1  UNL1        0.0002
      7 C         139.9680  140.6660  166.5134 C.3     1  UNL1        0.0991
      8 C         140.0393  140.5500  166.4354 C.3     1  UNL1        0.0742
      9 C         141.2249  139.9213  165.7652 C.3     1  UNL1        0.0356
     10 C         140.9382  138.5538  165.1936 C.3     1  UNL1        0.0594
     11 C         140.3768  137.2411  164.7334 C.3     1  UNL1        0.0174
     12 C         138.9370  137.1814  165.1498 C.3     1  UNL1        0.0174
     13 C         138.6086  138.4570  165.8673 C.3     1  UNL1        0.0594
     14 C         138.7311  139.8178  166.4864 C.3     1  UNL1        0.0356
     15 N         139.8454  139.3052  165.8943 N.3     1  UNL1       -0.2715
     16 C         140.4329  143.4086  169.1598 C.3     1  UNL1        0.0946
     17 C         140.3104  142.0479  168.5407 C.2     1  UNL1        0.2229
     18 O         140.3364  140.8243  169.4080 O.2     1  UNL1       -0.2751
     19 N         140.1618  141.9107  167.0544 N.am    1  UNL1       -0.3059
     20 H         140.1448  142.7138  166.4853 H       1  UNL1        0.1494
     21 O         140.1143  145.5464  163.0262 O.3     1  UNL1       -0.4313
     22 C         140.4469  145.4174  161.5692 C.ar    1  UNL1        0.2642
     23 N         139.7385  146.1036  160.4390 N.ar    1  UNL1       -0.1859
     24 C         140.4000  145.6899  159.1579 C.ar    1  UNL1        0.1720
     25 N         140.1294  146.0491  157.7270 N.ar    1  UNL1       -0.2245
     26 C         140.9761  145.4665  156.6344 C.ar    1  UNL1        0.1006
     27 C         142.0934  144.5247  156.9728 C.ar    1  UNL1        0.0213
     28 C         142.3640  144.1655  158.4038 C.ar    1  UNL1        0.0113
     29 C         141.5174  144.7481  159.4963 C.ar    1  UNL1        0.0697
     30 S         141.5463  144.5797  160.9866 S.2     1  UNL1       -0.0267
@<TRIPOS>BOND
     1    16    17    1
     2    17    18    2
     3    17    19   am
     4    19     8    1
     5     8     9    1
     6     9    10    1
     7    10    11    1
     8    11    12    1
     9    12    13    1
    10    13    14    1
    11    13    15    1
    12    15     7    1
    13     7     1    1
    14     1     2   ar
    15     2     3   ar
    16     3     4   ar
    17     4    21    1
    18    21    22    1
    19    22    23   ar
    20    23    24   ar
    21    24    25   ar
    22    25    26   ar
    23    26    27   ar
    24    27    28   ar
    25    28    29   ar
    26    29    30   ar
    27     4     5   ar
    28     5     6   ar
    29    14     8    1
    30     6     1   ar
    31    15    10    1
    32    30    22   ar
    33    29    24   ar
    34    19    20    1
@<TRIPOS>MOLECULE
*****
 30 34 0 0 0
SMALL
GASTEIGER

@<TRIPOS>ATOM
      1 C         139.9093  140.8578  166.3501 C.ar    1  UNL1       -0.0059
      2 C         140.1504  141.9439  165.3441 C.ar    1  UNL1        0.0002
      3 C         139.3292  142.0004  164.0900 C.ar    1  UNL1        0.0373
      4 C         138.2671  140.9706  163.8420 C.ar    1  UNL1        0.1477
      5 C         138.0261  139.8844  164.8481 C.ar    1  UNL1        0.0373
      6 C         138.8472  139.8280  166.1021 C.ar    1  UNL1        0.0002
      7 C         140.7305  140.8013  167.6042 C.3     1  UNL1        0.0991
      8 C         140.7429  140.9460  167.6638 C.3     1  UNL1        0.0742
      9 C         141.1920  142.3765  167.6174 C.3     1  UNL1        0.0356
     10 C         140.8014  143.1699  168.8409 C.3     1  UNL1        0.0594
     11 C         140.2899  143.6999  170.1476 C.3     1  UNL1        0.0174
     12 C         139.5917  142.5801  170.8606 C.3     1  UNL1        0.0174
     13 C         139.6718  141.3579  169.9947 C.3     1  UNL1        0.0594
     14 C         139.9828  140.4367  168.8524 C.3     1  UNL1        0.0356
     15 N         140.4194  141.7225  168.7464 N.3     1  UNL1       -0.2715
     16 C         142.5676  138.2094  165.4431 C.3     1  UNL1        0.0946
     17 C         142.2566  139.1305  166.5853 C.2     1  UNL1        0.2229
     18 O         143.1481  139.1574  167.7912 O.2     1  UNL1       -0.2751
     19 N         141.0540  140.0248  166.5215 N.am    1  UNL1       -0.3059
     20 H         140.4688  140.0072  165.7300 H       1  UNL1        0.1494
     21 O         137.4460  141.0270  162.5880 O.3     1  UNL1       -0.4313
     22 C         138.0822  141.4362  161.2927 C.ar    1  UNL1        0.2642
     23 N         138.2044  142.8387  160.7748 N.ar    1  UNL1       -0.1859
     24 C         138.9056  142.7841  159.4499 C.ar    1  UNL1        0.1720
     25 N         139.3010  143.8565  158.4786 N.ar    1  UNL1       -0.2245
     26 C         140.0075  143.4928  157.2064 C.ar    1  UNL1        0.1006
     27 C         140.3187  142.0566  156.9055 C.ar    1  UNL1        0.0213
     28 C         139.9233  140.9842  157.8768 C.ar    1  UNL1        0.0113
     29 C         139.2168  141.3479  159.1490 C.ar    1  UNL1        0.0697
     30 S         138.7079  140.5149  160.2879 S.2     1  UNL1       -0.0267
@<TRIPOS>BOND
     1    16    17    1
     2    17    18    2
     3    17    19   am
     4    19     8    1
     5     8     9    1
     6     9    10    1
     7    10    11    1
     8    11    12    1
     9    12    13    1
    10    13    14    1
    11    13    15    1
    12    15     7    1
    13     7     1    1
    14     1     2   ar
    15     2     3   ar
    16     3     4   ar
    17     4    21    1
    18    21    22    1
    19    22    23   ar
    20    23    24   ar
    21    24    25   ar
    22    25    26   ar
    23    26    27   ar
    24    27    28   ar
    25    28    29   ar
    26    29    30   ar
    27     4     5   ar
    28     5     6   ar
    29    14     8    1
    30     6     1   ar
    31    15    10    1
    32    30    22   ar
    33    29    24   ar
    34    19    20    1
@<TRIPOS>MOLECULE
*****
 30 34 0 0 0
SMALL
GASTEIGER

@<TRIPOS>ATOM
      1 C         140.5934  140.7890  166.7272 C.ar    1  UNL1       -0.0059
      2 C         140.6694  142.0912  165.9867 C.ar    1  UNL1        0.0002
      3 C         139.6248  142.4364  164.9671 C.ar    1  UNL1        0.0373
      4 C         138.5041  141.4792  164.6880 C.ar    1  UNL1        0.1477
      5 C         138.4281  140.1769  165.4286 C.ar    1  UNL1        0.0373
      6 C         139.4727  139.8319  166.4481 C.ar    1  UNL1        0.0002
      7 C         141.6381  140.4439  167.7469 C.3     1  UNL1        0.0991
      8 C         141.5635  140.4492  167.8848 C.3     1  UNL1        0.0742
      9 C         140.4832  140.0295  168.8372 C.3     1  UNL1        0.0356
     10 C         140.5566  140.7251  170.1750 C.3     1  UNL1        0.0594
     11 C         140.8691  141.5534  171.3859 C.3     1  UNL1        0.0174
     12 C         142.0791  142.3850  171.0789 C.3     1  UNL1        0.0174
     13 C         142.5145  142.0706  169.6784 C.3     1  UNL1        0.0594
     14 C         142.5791  141.4698  168.3054 C.3     1  UNL1        0.0356
     15 N         141.5735  141.0447  169.1197 N.3     1  UNL1       -0.2715
     16 C         142.7086  138.1879  164.8312 C.3     1  UNL1        0.0946
     17 C         142.6440  138.7887  166.2041 C.2     1  UNL1        0.2229
     18 O         143.5953  138.3296  167.2691 O.2     1  UNL1       -0.2751
     19 N         141.6281  139.8485  166.5119 N.am    1  UNL1       -0.3059
     20 H         141.0037  140.1497  165.8129 H       1  UNL1        0.1494
     21 O         137.4594  141.8242  163.6684 O.3     1  UNL1       -0.4313
     22 C         137.7947  141.7813  162.2070 C.ar    1  UNL1        0.2642
     23 N         138.0652  142.9672  161.3292 N.ar    1  UNL1       -0.1859
     24 C         138.3560  142.4638  159.9465 C.ar    1  UNL1        0.1720
     25 N         138.6917  143.1751  158.6693 N.ar    1  UNL1       -0.2245
     26 C         138.9366  142.3894  157.4153 C.ar    1  UNL1        0.1006
     27 C         138.8458  140.8923  157.4384 C.ar    1  UNL1        0.0213
     28 C         138.5101  140.1810  158.7156 C.ar    1  UNL1        0.0113
     29 C         138.2651  140.9667  159.9696 C.ar    1  UNL1        0.0697
     30 S         137.9182  140.5449  161.3667 S.2     1  UNL1       -0.0267
@<TRIPOS>BOND
     1    16    17    1
     2    17    18    2
     3    17    19   am
     4    19     8    1
     5     8     9    1
     6     9    10    1
     7    10    11    1
     8    11    12    1
     9    12    13    1
    10    13    14    1
    11    13    15    1
    12    15     7    1
    13     7     1    1
    14     1     2   ar
    15     2     3   ar
    16     3     4   ar
    17     4    21    1
    18    21    22    1
    19    22    23   ar
    20    23    24   ar
    21    24    25   ar
    22    25    26   ar
    23    26    27   ar
    24    27    28   ar
    25    28    29   ar
    26    29    30   ar
    27     4     5   ar
    28     5     6   ar
    29    14     8    1
    30     6     1   ar
    31    15    10    1
    32    30    22   ar
    33    29    24   ar
    34    19    20    1
@<TRIPOS>MOLECULE
*****
 30 34 0 0 0
SMALL
GASTEIGER

@<TRIPOS>ATOM
      1 C         140.5733  141.2670  165.7256 C.ar    1  UNL1       -0.0059
      2 C         141.7677  141.3686  164.8240 C.ar    1  UNL1        0.0002
      3 C         142.0109  142.6240  164.0398 C.ar    1  UNL1        0.0373
      4 C         141.0596  143.7778  164.1573 C.ar    1  UNL1        0.1477
      5 C         139.8651  143.6761  165.0590 C.ar    1  UNL1        0.0373
      6 C         139.6220  142.4208  165.8431 C.ar    1  UNL1        0.0002
      7 C         140.3301  140.0116  166.5098 C.3     1  UNL1        0.0991
      8 C         140.4572  139.9804  166.5964 C.3     1  UNL1        0.0742
      9 C         141.9063  139.6313  166.7656 C.3     1  UNL1        0.0356
     10 C         142.3335  139.5181  168.2091 C.3     1  UNL1        0.0594
     11 C         142.4714  139.4739  169.7021 C.3     1  UNL1        0.0174
     12 C         141.1331  139.7907  170.3008 C.3     1  UNL1        0.0174
     13 C         140.1680  140.0307  169.1778 C.3     1  UNL1        0.0594
     14 C         139.5881  140.1801  167.8025 C.3     1  UNL1        0.0356
     15 N         140.9099  139.8622  167.8851 N.3     1  UNL1       -0.2715
     16 C         138.5281  139.1488  163.2294 C.3     1  UNL1        0.0946
     17 C         139.1079  138.9994  164.6047 C.2     1  UNL1        0.2229
     18 O         138.9182  137.7195  165.3636 O.2     1  UNL1       -0.2751
     19 N         139.8774  140.1298  165.2211 N.am    1  UNL1       -0.3059
     20 H         140.0019  140.9698  164.7230 H       1  UNL1        0.1494
     21 O         141.3027  145.0332  163.3732 O.3     1  UNL1       -0.4313
     22 C         141.3602  144.9825  161.8752 C.ar    1  UNL1        0.2642
     23 N         142.4699  144.3948  161.0548 N.ar    1  UNL1       -0.1859
     24 C         142.1136  144.5597  159.6070 C.ar    1  UNL1        0.1720
     25 N         142.8284  144.1709  158.3469 N.ar    1  UNL1       -0.2245
     26 C         142.2132  144.4719  157.0124 C.ar    1  UNL1        0.1006
     27 C         140.8832  145.1615  156.9381 C.ar    1  UNL1        0.0213
     28 C         140.1684  145.5503  158.1982 C.ar    1  UNL1        0.0113
     29 C         140.7836  145.2493  159.5327 C.ar    1  UNL1        0.0697
     30 S         140.3180  145.5106  160.9345 S.2     1  UNL1       -0.0267
@<TRIPOS>BOND
     1    16    17    1
     2    17    18    2
     3    17    19   am
     4    19     8    1
     5     8     9    1
     6     9    10    1
     7    10    11    1
     8    11    12    1
     9    12    13    1
    10    13    14    1
    11    13    15    1
    12    15     7    1
    13     7     1    1
    14     1     2   ar
    15     2     3   ar
    16     3     4   ar
    17     4    21    1
    18    21    22    1
    19    22    23   ar
    20    23    24   ar
    21    24    25   ar
    22    25    26   ar
    23    26    27   ar
    24    27    28   ar
    25    28    29   ar
    26    29    30   ar
    27     4     5   ar
    28     5     6   ar
    29    14     8    1
    30     6     1   ar
    31    15    10    1
    32    30    22   ar
    33    29    24   ar
    34    19    20    1
@<TRIPOS>MOLECULE
*****
 30 34 0 0 0
SMALL
GASTEIGER

@<TRIPOS>ATOM
      1 C         140.0851  140.7809  164.9955 C.ar    1  UNL1       -0.0059
      2 C         138.7754  141.4979  165.1391 C.ar    1  UNL1        0.0002
      3 C         138.4893  142.7115  164.3052 C.ar    1  UNL1        0.0373
      4 C         139.5130  143.2082  163.3278 C.ar    1  UNL1        0.1477
      5 C         140.8228  142.4912  163.1842 C.ar    1  UNL1        0.0373
      6 C         141.1088  141.2776  164.0181 C.ar    1  UNL1        0.0002
      7 C         140.3711  139.5673  165.8294 C.3     1  UNL1        0.0991
      8 C         140.3420  139.6029  165.9794 C.3     1  UNL1        0.0742
      9 C         139.4390  140.0145  167.1043 C.3     1  UNL1        0.0356
     10 C         140.1459  140.1260  168.4336 C.3     1  UNL1        0.0594
     11 C         141.0913  140.1547  169.5978 C.3     1  UNL1        0.0174
     12 C         142.4524  139.7691  169.0993 C.3     1  UNL1        0.0174
     13 C         142.3484  139.5021  167.6269 C.3     1  UNL1        0.0594
     14 C         141.7967  139.3466  166.2407 C.3     1  UNL1        0.0356
     15 N         140.9228  139.7227  167.2155 N.3     1  UNL1       -0.2715
     16 C         138.5206  138.0324  162.8225 C.3     1  UNL1        0.0946
     17 C         139.0723  138.1878  164.2086 C.2     1  UNL1        0.2229
     18 O         138.9061  137.0836  165.2101 O.2     1  UNL1       -0.2751
     19 N         139.7903  139.4474  164.5932 N.am    1  UNL1       -0.3059
     20 H         139.8993  140.1722  163.9359 H       1  UNL1        0.1494
     21 O         139.2271  144.4218  162.4939 O.3     1  UNL1       -0.4313
     22 C         139.6908  144.4787  161.0685 C.ar    1  UNL1        0.2642
     23 N         139.1808  143.6312  159.9409 N.ar    1  UNL1       -0.1859
     24 C         139.9207  144.0218  158.6960 C.ar    1  UNL1        0.1720
     25 N         139.8386  143.5266  157.2825 N.ar    1  UNL1       -0.2245
     26 C         140.7239  144.1204  156.2272 C.ar    1  UNL1        0.1006
     27 C         141.6912  145.2094  156.5854 C.ar    1  UNL1        0.0213
     28 C         141.7733  145.7046  157.9989 C.ar    1  UNL1        0.0113
     29 C         140.8880  145.1108  159.0542 C.ar    1  UNL1        0.0697
     30 S         140.7459  145.3932  160.5205 S.2     1  UNL1       -0.0267
@<TRIPOS>BOND
     1    16    17    1
     2    17    18    2
     3    17    19   am
     4    19     8    1
     5     8     9    1
     6     9    10    1
     7    10    11    1
     8    11    12    1
     9    12    13    1
    10    13    14    1
    11    13    15    1
    12    15     7    1
    13     7     1    1
    14     1     2   ar
    15     2     3   ar
    16     3     4   ar
    17     4    21    1
    18    21    22    1
    19    22    23   ar
    20    23    24   ar
    21    24    25   ar
    22    25    26   ar
    23    26    27   ar
    24    27    28   ar
    25    28    29   ar
    26    29    30   ar
    27     4     5   ar
    28     5     6   ar
    29    14     8    1
    30     6     1   ar
    31    15    10    1
    32    30    22   ar
    33    29    24   ar
    34    19    20    1
