@<TRIPOS>MOLECULE
*****
 28 31 0 0 0
SMALL
GASTEIGER

@<TRIPOS>ATOM
      1 C         139.3159  141.8661  164.5413 C.ar    1  UNL1        0.0875
      2 C         139.1727  140.7056  163.6019 C.ar    1  UNL1        0.0400
      3 C         138.8376  140.9452  162.1595 C.ar    1  UNL1        0.1051
      4 N         138.6944  139.7847  161.2200 N.ar    1  UNL1       -0.2405
      5 C         138.3594  140.0243  159.7777 C.ar    1  UNL1        0.1195
      6 C         138.1676  141.4245  159.2748 C.ar    1  UNL1        0.1197
      7 N         138.3109  142.5850  160.2143 N.ar    1  UNL1       -0.2360
      8 C         138.6459  142.3453  161.6566 C.ar    1  UNL1        0.1519
      9 C         138.7891  143.5059  162.5962 C.ar    1  UNL1        0.2445
     10 N         139.1241  143.2662  164.0385 N.ar    1  UNL1       -0.2102
     11 C         140.3209  141.1472  168.8684 C.ar    1  UNL1        0.1318
     12 C         140.6538  142.4630  168.2296 C.ar    1  UNL1        0.0344
     13 C         140.3188  142.7026  166.7873 C.ar    1  UNL1        0.0059
     14 C         139.6509  141.6265  165.9837 C.ar    1  UNL1        0.0371
     15 C         139.3179  140.3108  166.6225 C.ar    1  UNL1        0.1018
     16 N         139.6529  140.0711  168.0648 N.ar    1  UNL1       -0.2291
     17 C         141.6069  141.8239  171.0220 C.3     1  UNL1        0.1136
     18 N         140.6559  140.9076  170.3108 N.pl3   1  UNL1       -0.2897
     19 C         140.0398  139.7518  171.0418 C.3     1  UNL1        0.1136
     20 O         138.5973  144.9060  162.0934 O.3     1  UNL1       -0.4591
     21 C         139.7755  145.8258  161.9680 C.3     1  UNL1        0.2084
     22 C         141.1617  145.3063  162.2098 C.3     1  UNL1        0.0596
     23 C         141.8307  145.5413  163.5316 C.3     1  UNL1        0.0065
     24 C         143.2169  145.0218  163.7735 C.3     1  UNL1        0.0172
     25 C         143.9341  144.2673  162.6936 C.3     1  UNL1        0.0686
     26 N         143.2651  144.0323  161.3717 N.3     1  UNL1       -0.2974
     27 C         141.8789  144.5518  161.1298 C.3     1  UNL1        0.0723
     28 H         143.2289  143.0221  161.2355 H       1  UNL1        0.1232
@<TRIPOS>BOND
     1    17    18    1
     2    18    19    1
     3    18    11    1
     4    11    12   ar
     5    12    13   ar
     6    13    14   ar
     7    14     1    1
     8     1     2   ar
     9     2     3   ar
    10     3     4   ar
    11     4     5   ar
    12     5     6   ar
    13     6     7   ar
    14     7     8   ar
    15     8     9   ar
    16     9    20    1
    17    20    21    1
    18    22    21    1
    19    22    23    1
    20    23    24    1
    21    24    25    1
    22    25    26    1
    23    26    27    1
    24     9    10   ar
    25    14    15   ar
    26    15    16   ar
    27    16    11   ar
    28    10     1   ar
    29     8     3   ar
    30    27    22    1
    31    26    28    1
@<TRIPOS>MOLECULE
*****
 28 31 0 0 0
SMALL
GASTEIGER

@<TRIPOS>ATOM
      1 C         140.7328  142.9838  164.0792 C.ar    1  UNL1        0.0875
      2 C         141.5222  143.8051  163.1033 C.ar    1  UNL1        0.0400
      3 C         141.0249  143.9849  161.6996 C.ar    1  UNL1        0.1051
      4 N         141.8143  144.8061  160.7237 N.ar    1  UNL1       -0.2405
      5 C         141.3170  144.9859  159.3200 C.ar    1  UNL1        0.1195
      6 C         140.0303  144.3444  158.8922 C.ar    1  UNL1        0.1197
      7 N         139.2409  143.5232  159.8681 N.ar    1  UNL1       -0.2360
      8 C         139.7382  143.3434  161.2718 C.ar    1  UNL1        0.1519
      9 C         138.9488  142.5221  162.2478 C.ar    1  UNL1        0.2445
     10 N         139.4461  142.3424  163.6514 N.ar    1  UNL1       -0.2102
     11 C         142.2247  142.4444  168.2903 C.ar    1  UNL1        0.1318
     12 C         140.7801  142.7627  168.0414 C.ar    1  UNL1        0.0344
     13 C         140.2828  142.9425  166.6377 C.ar    1  UNL1        0.0059
     14 C         141.2301  142.8040  165.4830 C.ar    1  UNL1        0.0371
     15 C         142.6746  142.4857  165.7319 C.ar    1  UNL1        0.1018
     16 N         143.1719  142.3059  167.1355 N.ar    1  UNL1       -0.2291
     17 C         141.7607  141.9152  170.7912 C.3     1  UNL1        0.1136
     18 N         142.7220  142.2646  169.6940 N.pl3   1  UNL1       -0.2897
     19 C         144.1805  142.4343  170.0005 C.3     1  UNL1        0.1136
     20 O         137.6622  141.8807  161.8200 O.3     1  UNL1       -0.4591
     21 C         137.6649  140.4809  161.2810 C.3     1  UNL1        0.2084
     22 C         138.5673  139.4462  161.8853 C.3     1  UNL1        0.0596
     23 C         138.3512  138.9966  163.2999 C.3     1  UNL1        0.0065
     24 C         139.2536  137.9620  163.9042 C.3     1  UNL1        0.0172
     25 C         140.3722  137.3770  163.0939 C.3     1  UNL1        0.0686
     26 N         140.5883  137.8266  161.6792 N.3     1  UNL1       -0.2974
     27 C         139.6859  138.8612  161.0749 C.3     1  UNL1        0.0723
     28 H         140.5180  136.9955  161.0921 H       1  UNL1        0.1232
@<TRIPOS>BOND
     1    17    18    1
     2    18    19    1
     3    18    11    1
     4    11    12   ar
     5    12    13   ar
     6    13    14   ar
     7    14     1    1
     8     1     2   ar
     9     2     3   ar
    10     3     4   ar
    11     4     5   ar
    12     5     6   ar
    13     6     7   ar
    14     7     8   ar
    15     8     9   ar
    16     9    20    1
    17    20    21    1
    18    22    21    1
    19    22    23    1
    20    23    24    1
    21    24    25    1
    22    25    26    1
    23    26    27    1
    24     9    10   ar
    25    14    15   ar
    26    15    16   ar
    27    16    11   ar
    28    10     1   ar
    29     8     3   ar
    30    27    22    1
    31    26    28    1
@<TRIPOS>MOLECULE
*****
 28 31 0 0 0
SMALL
GASTEIGER

@<TRIPOS>ATOM
      1 C         141.8597  139.7296  164.0521 C.ar    1  UNL1        0.0875
      2 C         142.8960  139.9461  162.9895 C.ar    1  UNL1        0.0400
      3 C         142.6130  139.5431  161.5726 C.ar    1  UNL1        0.1051
      4 N         143.6493  139.7595  160.5100 N.ar    1  UNL1       -0.2405
      5 C         143.3662  139.3565  159.0932 C.ar    1  UNL1        0.1195
      6 C         142.0468  138.7370  158.7390 C.ar    1  UNL1        0.1197
      7 N         141.0105  138.5205  159.8016 N.ar    1  UNL1       -0.2360
      8 C         141.2936  138.9236  161.2184 C.ar    1  UNL1        0.1519
      9 C         140.2572  138.7071  162.2811 C.ar    1  UNL1        0.2445
     10 N         140.5403  139.1101  163.6979 N.ar    1  UNL1       -0.2102
     11 C         142.7088  140.9388  168.3026 C.ar    1  UNL1        0.1318
     12 C         142.7238  139.4890  167.9180 C.ar    1  UNL1        0.0344
     13 C         142.4408  139.0860  166.5012 C.ar    1  UNL1        0.0059
     14 C         142.1428  140.1327  165.4690 C.ar    1  UNL1        0.0371
     15 C         142.1278  141.5825  165.8536 C.ar    1  UNL1        0.1018
     16 N         142.4108  141.9855  167.2704 N.ar    1  UNL1       -0.2291
     17 C         144.0148  142.4003  170.0081 C.3     1  UNL1        0.1136
     18 N         142.9919  141.3419  169.7195 N.pl3   1  UNL1       -0.2897
     19 C         142.2520  140.6864  170.8478 C.3     1  UNL1        0.1136
     20 O         138.9379  138.0876  161.9269 O.3     1  UNL1       -0.4591
     21 C         137.7769  138.9595  161.5503 C.3     1  UNL1        0.2084
     22 C         137.8194  140.4309  161.8387 C.3     1  UNL1        0.0596
     23 C         137.4850  140.9362  163.2108 C.3     1  UNL1        0.0065
     24 C         137.5275  142.4076  163.4992 C.3     1  UNL1        0.0172
     25 C         137.9044  143.3737  162.4154 C.3     1  UNL1        0.0686
     26 N         138.2388  142.8684  161.0432 N.3     1  UNL1       -0.2974
     27 C         138.1963  141.3970  160.7548 C.3     1  UNL1        0.0723
     28 H         139.1874  143.1816  160.8372 H       1  UNL1        0.1232
@<TRIPOS>BOND
     1    17    18    1
     2    18    19    1
     3    18    11    1
     4    11    12   ar
     5    12    13   ar
     6    13    14   ar
     7    14     1    1
     8     1     2   ar
     9     2     3   ar
    10     3     4   ar
    11     4     5   ar
    12     5     6   ar
    13     6     7   ar
    14     7     8   ar
    15     8     9   ar
    16     9    20    1
    17    20    21    1
    18    22    21    1
    19    22    23    1
    20    23    24    1
    21    24    25    1
    22    25    26    1
    23    26    27    1
    24     9    10   ar
    25    14    15   ar
    26    15    16   ar
    27    16    11   ar
    28    10     1   ar
    29     8     3   ar
    30    27    22    1
    31    26    28    1
@<TRIPOS>MOLECULE
*****
 28 31 0 0 0
SMALL
GASTEIGER

@<TRIPOS>ATOM
      1 C         142.7035  142.9923  160.2382 C.ar    1  UNL1        0.0875
      2 C         141.2076  142.9806  160.3482 C.ar    1  UNL1        0.0400
      3 C         140.5363  143.6389  161.5170 C.ar    1  UNL1        0.1051
      4 N         139.0404  143.6272  161.6270 N.ar    1  UNL1       -0.2405
      5 C         138.3692  144.2854  162.7958 C.ar    1  UNL1        0.1195
      6 C         139.1939  144.9552  163.8547 C.ar    1  UNL1        0.1197
      7 N         140.6897  144.9669  163.7447 N.ar    1  UNL1       -0.2360
      8 C         141.3610  144.3087  162.5759 C.ar    1  UNL1        0.1519
      9 C         142.8569  144.3204  162.4659 C.ar    1  UNL1        0.2445
     10 N         143.5282  143.6622  161.2971 N.ar    1  UNL1       -0.2102
     11 C         144.7174  141.0177  156.7318 C.ar    1  UNL1        0.1318
     12 C         144.2804  142.4495  156.6370 C.ar    1  UNL1        0.0344
     13 C         143.6091  143.1077  157.8058 C.ar    1  UNL1        0.0059
     14 C         143.3748  142.3341  159.0693 C.ar    1  UNL1        0.0371
     15 C         143.8118  140.9023  159.1641 C.ar    1  UNL1        0.1018
     16 N         144.4831  140.2441  157.9953 N.ar    1  UNL1       -0.2291
     17 C         146.4758  141.0781  154.8201 C.3     1  UNL1        0.1136
     18 N         145.3887  140.3595  155.5629 N.pl3   1  UNL1       -0.2897
     19 C         144.9728  138.9827  155.1369 C.3     1  UNL1        0.1136
     20 O         143.6816  144.9903  163.5248 O.3     1  UNL1       -0.4591
     21 C         144.0972  144.2263  164.7468 C.3     1  UNL1        0.2084
     22 C         144.1766  142.7290  164.7044 C.3     1  UNL1        0.0596
     23 C         145.3333  142.0582  164.0248 C.3     1  UNL1        0.0065
     24 C         145.4127  140.5609  163.9823 C.3     1  UNL1        0.0172
     25 C         144.3352  139.7344  164.6195 C.3     1  UNL1        0.0686
     26 N         143.1784  140.4052  165.2991 N.3     1  UNL1       -0.2974
     27 C         143.0990  141.9025  165.3415 C.3     1  UNL1        0.0723
     28 H         143.1781  140.0827  166.2668 H       1  UNL1        0.1232
@<TRIPOS>BOND
     1    17    18    1
     2    18    19    1
     3    18    11    1
     4    11    12   ar
     5    12    13   ar
     6    13    14   ar
     7    14     1    1
     8     1     2   ar
     9     2     3   ar
    10     3     4   ar
    11     4     5   ar
    12     5     6   ar
    13     6     7   ar
    14     7     8   ar
    15     8     9   ar
    16     9    20    1
    17    20    21    1
    18    22    21    1
    19    22    23    1
    20    23    24    1
    21    24    25    1
    22    25    26    1
    23    26    27    1
    24     9    10   ar
    25    14    15   ar
    26    15    16   ar
    27    16    11   ar
    28    10     1   ar
    29     8     3   ar
    30    27    22    1
    31    26    28    1
@<TRIPOS>MOLECULE
*****
 28 31 0 0 0
SMALL
GASTEIGER

@<TRIPOS>ATOM
      1 C         139.0918  142.7489  159.4738 C.ar    1  UNL1        0.0875
      2 C         139.4526  141.2950  159.3977 C.ar    1  UNL1        0.0400
      3 C         139.1240  140.3798  160.5399 C.ar    1  UNL1        0.1051
      4 N         139.4848  138.9259  160.4637 N.ar    1  UNL1       -0.2405
      5 C         139.1562  138.0108  161.6059 C.ar    1  UNL1        0.1195
      6 C         138.4668  138.5497  162.8242 C.ar    1  UNL1        0.1197
      7 N         138.1060  140.0036  162.9004 N.ar    1  UNL1       -0.2360
      8 C         138.4346  140.9187  161.7582 C.ar    1  UNL1        0.1519
      9 C         138.0737  142.3727  161.8343 C.ar    1  UNL1        0.2445
     10 N         138.4023  143.2878  160.6922 N.ar    1  UNL1       -0.2102
     11 C         140.0775  145.4943  156.0473 C.ar    1  UNL1        0.1318
     12 C         140.5411  145.8292  157.4339 C.ar    1  UNL1        0.0344
     13 C         140.2126  144.9141  158.5761 C.ar    1  UNL1        0.0059
     14 C         139.4204  143.6641  158.3316 C.ar    1  UNL1        0.0371
     15 C         138.9568  143.3292  156.9449 C.ar    1  UNL1        0.1018
     16 N         139.2853  144.2443  155.8028 N.ar    1  UNL1       -0.2291
     17 C         139.7789  147.7699  154.8297 C.3     1  UNL1        0.1136
     18 N         140.4061  146.4094  154.9051 N.pl3   1  UNL1       -0.2897
     19 C         141.3619  145.9641  153.8383 C.3     1  UNL1        0.1136
     20 O         137.3843  142.9115  163.0526 O.3     1  UNL1       -0.4591
     21 C         138.1926  143.3842  164.2244 C.3     1  UNL1        0.2084
     22 C         139.5504  143.9834  164.0062 C.3     1  UNL1        0.0596
     23 C         140.7730  143.2722  164.5053 C.3     1  UNL1        0.0065
     24 C         142.1307  143.8714  164.2871 C.3     1  UNL1        0.0172
     25 C         142.2658  145.1817  163.5697 C.3     1  UNL1        0.0686
     26 N         141.0431  145.8930  163.0705 N.3     1  UNL1       -0.2974
     27 C         139.6853  145.2938  163.2887 C.3     1  UNL1        0.0723
     28 H         141.1576  146.0037  162.0630 H       1  UNL1        0.1232
@<TRIPOS>BOND
     1    17    18    1
     2    18    19    1
     3    18    11    1
     4    11    12   ar
     5    12    13   ar
     6    13    14   ar
     7    14     1    1
     8     1     2   ar
     9     2     3   ar
    10     3     4   ar
    11     4     5   ar
    12     5     6   ar
    13     6     7   ar
    14     7     8   ar
    15     8     9   ar
    16     9    20    1
    17    20    21    1
    18    22    21    1
    19    22    23    1
    20    23    24    1
    21    24    25    1
    22    25    26    1
    23    26    27    1
    24     9    10   ar
    25    14    15   ar
    26    15    16   ar
    27    16    11   ar
    28    10     1   ar
    29     8     3   ar
    30    27    22    1
    31    26    28    1
@<TRIPOS>MOLECULE
*****
 28 31 0 0 0
SMALL
GASTEIGER

@<TRIPOS>ATOM
      1 C         142.5404  140.6209  161.2906 C.ar    1  UNL1        0.0875
      2 C         141.5108  139.5305  161.2571 C.ar    1  UNL1        0.0400
      3 C         140.6903  139.2358  162.4778 C.ar    1  UNL1        0.1051
      4 N         139.6608  138.1455  162.4442 N.ar    1  UNL1       -0.2405
      5 C         138.8404  137.8509  163.6648 C.ar    1  UNL1        0.1195
      6 C         139.0495  138.6466  164.9191 C.ar    1  UNL1        0.1197
      7 N         140.0790  139.7369  164.9526 N.ar    1  UNL1       -0.2360
      8 C         140.8994  140.0316  163.7320 C.ar    1  UNL1        0.1519
      9 C         141.9290  141.1220  163.7655 C.ar    1  UNL1        0.2445
     10 N         142.7495  141.4166  162.5449 N.ar    1  UNL1       -0.2102
     11 C         145.0018  141.5047  157.6287 C.ar    1  UNL1        0.1318
     12 C         144.7684  142.5763  158.6521 C.ar    1  UNL1        0.0344
     13 C         143.9480  142.2817  159.8727 C.ar    1  UNL1        0.0059
     14 C         143.3609  140.9155  160.0699 C.ar    1  UNL1        0.0371
     15 C         143.5942  139.8440  159.0465 C.ar    1  UNL1        0.1018
     16 N         144.4147  140.1386  157.8259 N.ar    1  UNL1       -0.2291
     17 C         147.1245  142.5322  156.5385 C.3     1  UNL1        0.1136
     18 N         145.8223  141.7994  156.4080 N.pl3   1  UNL1       -0.2897
     19 C         145.3404  141.3613  155.0567 C.3     1  UNL1        0.1136
     20 O         142.1381  141.9177  165.0198 O.3     1  UNL1       -0.4591
     21 C         141.1822  143.0164  165.3790 C.3     1  UNL1        0.2084
     22 C         140.6924  143.9602  164.3211 C.3     1  UNL1        0.0596
     23 C         139.3178  143.7926  163.7446 C.3     1  UNL1        0.0065
     24 C         138.8281  144.7364  162.6866 C.3     1  UNL1        0.0172
     25 C         139.7129  145.8478  162.2051 C.3     1  UNL1        0.0686
     26 N         141.0876  146.0154  162.7816 N.3     1  UNL1       -0.2974
     27 C         141.5773  145.0716  163.8396 C.3     1  UNL1        0.0723
     28 H         141.1266  146.9527  163.1822 H       1  UNL1        0.1232
@<TRIPOS>BOND
     1    17    18    1
     2    18    19    1
     3    18    11    1
     4    11    12   ar
     5    12    13   ar
     6    13    14   ar
     7    14     1    1
     8     1     2   ar
     9     2     3   ar
    10     3     4   ar
    11     4     5   ar
    12     5     6   ar
    13     6     7   ar
    14     7     8   ar
    15     8     9   ar
    16     9    20    1
    17    20    21    1
    18    22    21    1
    19    22    23    1
    20    23    24    1
    21    24    25    1
    22    25    26    1
    23    26    27    1
    24     9    10   ar
    25    14    15   ar
    26    15    16   ar
    27    16    11   ar
    28    10     1   ar
    29     8     3   ar
    30    27    22    1
    31    26    28    1
@<TRIPOS>MOLECULE
*****
 28 31 0 0 0
SMALL
GASTEIGER

@<TRIPOS>ATOM
      1 C         142.3698  141.4931  165.3096 C.ar    1  UNL1        0.0875
      2 C         143.2815  142.0766  166.3480 C.ar    1  UNL1        0.0400
      3 C         142.8583  142.1057  167.7868 C.ar    1  UNL1        0.1051
      4 N         143.7700  142.6891  168.8252 N.ar    1  UNL1       -0.2405
      5 C         143.3467  142.7182  170.2639 C.ar    1  UNL1        0.1195
      6 C         142.0117  142.1638  170.6642 C.ar    1  UNL1        0.1197
      7 N         141.0999  141.5803  169.6259 N.ar    1  UNL1       -0.2360
      8 C         141.5232  141.5513  168.1871 C.ar    1  UNL1        0.1519
      9 C         140.6114  140.9678  167.1487 C.ar    1  UNL1        0.2445
     10 N         141.0347  140.9387  165.7100 N.ar    1  UNL1       -0.2102
     11 C         143.6395  141.4059  160.9934 C.ar    1  UNL1        0.1318
     12 C         144.6646  141.5880  162.0732 C.ar    1  UNL1        0.0344
     13 C         144.2414  141.6171  163.5119 C.ar    1  UNL1        0.0059
     14 C         142.7931  141.4641  163.8708 C.ar    1  UNL1        0.0371
     15 C         141.7679  141.2820  162.7910 C.ar    1  UNL1        0.1018
     16 N         142.1911  141.2529  161.3523 N.ar    1  UNL1       -0.2291
     17 C         143.7971  140.1597  158.7191 C.3     1  UNL1        0.1136
     18 N         144.0627  141.3768  159.5546 N.pl3   1  UNL1       -0.2897
     19 C         144.7516  142.5649  158.9513 C.3     1  UNL1        0.1136
     20 O         139.2764  140.4134  167.5491 O.3     1  UNL1       -0.4591
     21 C         138.7769  139.1410  166.9315 C.3     1  UNL1        0.2084
     22 C         138.6094  139.0446  165.4440 C.3     1  UNL1        0.0596
     23 C         139.0349  137.8015  164.7203 C.3     1  UNL1        0.0065
     24 C         138.8674  137.7051  163.2328 C.3     1  UNL1        0.0172
     25 C         138.2744  138.8518  162.4690 C.3     1  UNL1        0.0686
     26 N         137.8489  140.0949  163.1926 N.3     1  UNL1       -0.2974
     27 C         138.0164  140.1913  164.6801 C.3     1  UNL1        0.0723
     28 H         136.8556  140.2228  162.9992 H       1  UNL1        0.1232
@<TRIPOS>BOND
     1    17    18    1
     2    18    19    1
     3    18    11    1
     4    11    12   ar
     5    12    13   ar
     6    13    14   ar
     7    14     1    1
     8     1     2   ar
     9     2     3   ar
    10     3     4   ar
    11     4     5   ar
    12     5     6   ar
    13     6     7   ar
    14     7     8   ar
    15     8     9   ar
    16     9    20    1
    17    20    21    1
    18    22    21    1
    19    22    23    1
    20    23    24    1
    21    24    25    1
    22    25    26    1
    23    26    27    1
    24     9    10   ar
    25    14    15   ar
    26    15    16   ar
    27    16    11   ar
    28    10     1   ar
    29     8     3   ar
    30    27    22    1
    31    26    28    1
@<TRIPOS>MOLECULE
*****
 28 31 0 0 0
SMALL
GASTEIGER

@<TRIPOS>ATOM
      1 C         141.0565  138.9576  162.3883 C.ar    1  UNL1        0.0875
      2 C         142.0022  138.9213  163.5520 C.ar    1  UNL1        0.0400
      3 C         141.5314  139.3366  164.9144 C.ar    1  UNL1        0.1051
      4 N         142.4771  139.3004  166.0781 N.ar    1  UNL1       -0.2405
      5 C         142.0062  139.7157  167.4403 C.ar    1  UNL1        0.1195
      6 C         140.5897  140.1672  167.6389 C.ar    1  UNL1        0.1197
      7 N         139.6440  140.2035  166.4752 N.ar    1  UNL1       -0.2360
      8 C         140.1148  139.7882  165.1129 C.ar    1  UNL1        0.1519
      9 C         139.1691  139.8245  163.9491 C.ar    1  UNL1        0.2445
     10 N         139.6400  139.4092  162.5869 N.ar    1  UNL1       -0.2102
     11 C         142.4691  137.7117  158.3015 C.ar    1  UNL1        0.1318
     12 C         141.1743  138.4535  158.4536 C.ar    1  UNL1        0.0344
     13 C         140.7034  138.8688  159.8159 C.ar    1  UNL1        0.0059
     14 C         141.5274  138.5423  161.0260 C.ar    1  UNL1        0.0371
     15 C         142.8222  137.8004  160.8738 C.ar    1  UNL1        0.1018
     16 N         143.2930  137.3851  159.5116 N.ar    1  UNL1       -0.2291
     17 C         143.2755  138.3368  155.9121 C.3     1  UNL1        0.1136
     18 N         142.9399  137.2964  156.9391 N.pl3   1  UNL1       -0.2897
     19 C         143.0751  135.8406  156.6039 C.3     1  UNL1        0.1136
     20 O         137.7525  140.2761  164.1476 O.3     1  UNL1       -0.4591
     21 C         137.1953  141.3881  163.3093 C.3     1  UNL1        0.2084
     22 C         137.9461  142.6805  163.1827 C.3     1  UNL1        0.0596
     23 C         138.2802  143.4770  164.4091 C.3     1  UNL1        0.0065
     24 C         139.0309  144.7694  164.2825 C.3     1  UNL1        0.0172
     25 C         139.4475  145.2654  162.9296 C.3     1  UNL1        0.0686
     26 N         139.1134  144.4689  161.7032 N.3     1  UNL1       -0.2974
     27 C         138.3627  143.1765  161.8297 C.3     1  UNL1        0.0723
     28 H         139.9975  144.2521  161.2430 H       1  UNL1        0.1232
@<TRIPOS>BOND
     1    17    18    1
     2    18    19    1
     3    18    11    1
     4    11    12   ar
     5    12    13   ar
     6    13    14   ar
     7    14     1    1
     8     1     2   ar
     9     2     3   ar
    10     3     4   ar
    11     4     5   ar
    12     5     6   ar
    13     6     7   ar
    14     7     8   ar
    15     8     9   ar
    16     9    20    1
    17    20    21    1
    18    22    21    1
    19    22    23    1
    20    23    24    1
    21    24    25    1
    22    25    26    1
    23    26    27    1
    24     9    10   ar
    25    14    15   ar
    26    15    16   ar
    27    16    11   ar
    28    10     1   ar
    29     8     3   ar
    30    27    22    1
    31    26    28    1
@<TRIPOS>MOLECULE
*****
 28 31 0 0 0
SMALL
GASTEIGER

@<TRIPOS>ATOM
      1 C         142.2241  142.7716  163.9669 C.ar    1  UNL1        0.0875
      2 C         141.5306  143.8328  163.1651 C.ar    1  UNL1        0.0400
      3 C         141.7794  143.9409  161.6898 C.ar    1  UNL1        0.1051
      4 N         141.0859  145.0020  160.8880 N.ar    1  UNL1       -0.2405
      5 C         141.3348  145.1101  159.4128 C.ar    1  UNL1        0.1195
      6 C         142.2771  144.1569  158.7394 C.ar    1  UNL1        0.1197
      7 N         142.9706  143.0958  159.5412 N.ar    1  UNL1       -0.2360
      8 C         142.7217  142.9877  161.0164 C.ar    1  UNL1        0.1519
      9 C         143.4152  141.9265  161.8183 C.ar    1  UNL1        0.2445
     10 N         143.1664  141.8184  163.2935 N.ar    1  UNL1       -0.2102
     11 C         141.4775  142.4474  168.3927 C.ar    1  UNL1        0.1318
     12 C         142.8505  142.1962  167.8433 C.ar    1  UNL1        0.0344
     13 C         143.0993  142.3042  166.3681 C.ar    1  UNL1        0.0059
     14 C         141.9752  142.6635  165.4422 C.ar    1  UNL1        0.0371
     15 C         140.6022  142.9147  165.9916 C.ar    1  UNL1        0.1018
     16 N         140.3534  142.8066  167.4668 N.ar    1  UNL1       -0.2291
     17 C         139.9748  142.9104  170.4609 C.3     1  UNL1        0.1136
     18 N         141.2287  142.3393  169.8680 N.pl3   1  UNL1       -0.2897
     19 C         142.2337  141.6600  170.7503 C.3     1  UNL1        0.1136
     20 O         144.3576  140.9733  161.1448 O.3     1  UNL1       -0.4591
     21 C         143.8400  139.6895  160.5672 C.3     1  UNL1        0.2084
     22 C         142.6709  138.9981  161.2037 C.3     1  UNL1        0.0596
     23 C         141.2876  139.2145  160.6655 C.3     1  UNL1        0.0065
     24 C         140.1185  138.5231  161.3021 C.3     1  UNL1        0.0172
     25 C         140.3327  137.6154  162.4769 C.3     1  UNL1        0.0686
     26 N         141.7160  137.3990  163.0152 N.3     1  UNL1       -0.2974
     27 C         142.8851  138.0904  162.3786 C.3     1  UNL1        0.0723
     28 H         141.9002  136.3974  162.9595 H       1  UNL1        0.1232
@<TRIPOS>BOND
     1    17    18    1
     2    18    19    1
     3    18    11    1
     4    11    12   ar
     5    12    13   ar
     6    13    14   ar
     7    14     1    1
     8     1     2   ar
     9     2     3   ar
    10     3     4   ar
    11     4     5   ar
    12     5     6   ar
    13     6     7   ar
    14     7     8   ar
    15     8     9   ar
    16     9    20    1
    17    20    21    1
    18    22    21    1
    19    22    23    1
    20    23    24    1
    21    24    25    1
    22    25    26    1
    23    26    27    1
    24     9    10   ar
    25    14    15   ar
    26    15    16   ar
    27    16    11   ar
    28    10     1   ar
    29     8     3   ar
    30    27    22    1
    31    26    28    1
