@<TRIPOS>MOLECULE
*****
 36 40 0 0 0
SMALL
GASTEIGER

@<TRIPOS>ATOM
      1 N         142.0461  144.4356  161.0093 N.ar    1  UNL1       -0.1967
      2 N         143.2710  143.9407  161.7198 N.ar    1  UNL1       -0.1666
      3 C         142.9399  143.8078  163.1767 C.ar    1  UNL1        0.0850
      4 C         141.5104  144.2206  163.3667 C.ar    1  UNL1        0.0342
      5 C         140.6403  144.2933  164.5863 C.ar    1  UNL1        0.0141
      6 C         139.2179  144.7539  164.4665 C.ar    1  UNL1        0.0578
      7 CL        138.3477  144.8266  165.6863 Cl      1  UNL1       -0.0822
      8 C         138.6654  145.1420  163.1270 C.ar    1  UNL1        0.0129
      9 C         139.5355  145.0693  161.9073 C.ar    1  UNL1        0.0202
     10 C         140.9580  144.6086  162.0272 C.ar    1  UNL1        0.0871
     11 C         141.2394  146.0042  153.7466 C.3     1  UNL1        0.0137
     12 C         141.3557  145.7303  155.2169 C.3     1  UNL1        0.0932
     13 C         142.4330  144.7761  154.7940 C.3     1  UNL1        0.0137
     14 C         140.2542  146.7419  155.3324 C.2     1  UNL1        0.2302
     15 O         139.6057  147.4731  154.1945 O.2     1  UNL1       -0.2744
     16 N         139.9149  146.8937  156.7856 N.am    1  UNL1       -0.2692
     17 C         140.8067  145.9760  157.5682 C.ar    1  UNL1        0.1363
     18 N         140.9230  145.7022  159.0384 N.ar    1  UNL1       -0.1951
     19 C         141.9298  144.7094  159.5390 C.ar    1  UNL1        0.2553
     20 N         142.8203  143.9904  158.5695 N.ar    1  UNL1       -0.1957
     21 C         142.7041  144.2642  157.0993 C.ar    1  UNL1        0.1276
     22 N         143.5946  143.5452  156.1298 N.pl3   1  UNL1       -0.3427
     23 C         141.6973  145.2570  156.5987 C.ar    1  UNL1        0.0484
     24 H         139.2275  147.4908  157.1600 H       1  UNL1        0.1563
     25 H         144.2554  142.8936  156.4584 H       1  UNL1        0.1437
     26 H         143.5183  143.7250  155.1648 H       1  UNL1        0.1437
     27 C         143.8743  143.3436  164.2544 C.3     1  UNL1        0.0785
     28 C         143.9509  141.8871  164.6045 C.ar    1  UNL1        0.0410
     29 C         144.8735  140.9806  163.8448 C.ar    1  UNL1        0.1388
     30 F         145.7195  141.5306  162.7351 F       1  UNL1       -0.2044
     31 C         144.9500  139.5241  164.1950 C.ar    1  UNL1        0.0318
     32 C         144.1040  138.9740  165.3048 C.ar    1  UNL1        0.0342
     33 C         143.1814  139.8805  166.0644 C.ar    1  UNL1        0.1672
     34 F         142.3354  139.3304  167.1743 F       1  UNL1       -0.2018
     35 C         143.1048  141.3370  165.7143 C.ar    1  UNL1        0.1659
     36 F         142.1822  142.2435  166.4740 F       1  UNL1       -0.2020
@<TRIPOS>BOND
     1    11    12    1
     2    12    13    1
     3    12    14    1
     4    14    15    2
     5    14    16   am
     6    16    17    1
     7    17    18   ar
     8    18    19   ar
     9    19     1    1
    10     1     2   ar
    11     2     3   ar
    12     3    27    1
    13    27    28    1
    14    28    29   ar
    15    29    30    1
    16    29    31   ar
    17    31    32   ar
    18    32    33   ar
    19    33    34    1
    20    33    35   ar
    21    35    36    1
    22     3     4   ar
    23     4     5   ar
    24     5     6   ar
    25     6     7    1
    26     6     8   ar
    27     8     9   ar
    28     9    10   ar
    29    19    20   ar
    30    20    21   ar
    31    21    22    1
    32    21    23   ar
    33    23    12    1
    34    23    17   ar
    35    10     1   ar
    36    35    28   ar
    37    10     4   ar
    38    16    24    1
    39    22    25    1
    40    22    26    1
@<TRIPOS>MOLECULE
*****
 36 40 0 0 0
SMALL
GASTEIGER

@<TRIPOS>ATOM
      1 N         140.6092  142.6338  163.9755 N.ar    1  UNL1       -0.1967
      2 N         140.8584  143.4061  165.2371 N.ar    1  UNL1       -0.1666
      3 C         140.3312  142.5992  166.3863 C.ar    1  UNL1        0.0850
      4 C         139.7561  141.3281  165.8350 C.ar    1  UNL1        0.0342
      5 C         139.0982  140.1540  166.4973 C.ar    1  UNL1        0.0141
      6 C         138.6121  139.0014  165.6697 C.ar    1  UNL1        0.0578
      7 CL        137.9541  137.8272  166.3320 Cl      1  UNL1       -0.0822
      8 C         138.7840  139.0228  164.1796 C.ar    1  UNL1        0.0129
      9 C         139.4419  140.1969  163.5174 C.ar    1  UNL1        0.0202
     10 C         139.9280  141.3495  164.3451 C.ar    1  UNL1        0.0871
     11 C         142.1963  144.9975  157.0653 C.3     1  UNL1        0.0137
     12 C         141.8288  144.5620  158.4528 C.3     1  UNL1        0.0932
     13 C         143.0285  143.6713  158.3216 C.3     1  UNL1        0.0137
     14 C         140.7059  145.5437  158.2939 C.2     1  UNL1        0.2302
     15 O         140.4403  146.3915  157.0854 O.2     1  UNL1       -0.2744
     16 N         139.8951  145.5287  159.5559 N.am    1  UNL1       -0.2692
     17 C         140.5169  144.5377  160.4947 C.ar    1  UNL1        0.1363
     18 N         140.1493  144.1023  161.8821 N.ar    1  UNL1       -0.1951
     19 C         140.9768  143.0693  162.5879 C.ar    1  UNL1        0.2553
     20 N         142.1719  142.4718  161.9062 N.ar    1  UNL1       -0.1957
     21 C         142.5395  142.9073  160.5187 C.ar    1  UNL1        0.1276
     22 N         143.7346  142.3098  159.8370 N.pl3   1  UNL1       -0.3427
     23 C         141.7120  143.9402  159.8129 C.ar    1  UNL1        0.0484
     24 H         139.0952  146.0736  159.7363 H       1  UNL1        0.1563
     25 H         144.2777  141.6318  160.3002 H       1  UNL1        0.1437
     26 H         143.9759  142.5956  158.9263 H       1  UNL1        0.1437
     27 C         140.3718  142.9939  167.8329 C.3     1  UNL1        0.0785
     28 C         141.0895  142.1291  168.8264 C.ar    1  UNL1        0.0410
     29 C         142.5846  142.0167  168.7810 C.ar    1  UNL1        0.1388
     30 F         143.3620  142.7692  167.7421 F       1  UNL1       -0.2044
     31 C         143.3021  141.1519  169.7745 C.ar    1  UNL1        0.0318
     32 C         142.5246  140.3995  170.8134 C.ar    1  UNL1        0.0342
     33 C         141.0296  140.5118  170.8588 C.ar    1  UNL1        0.1672
     34 F         140.2521  139.7593  171.8977 F       1  UNL1       -0.2018
     35 C         140.3120  141.3766  169.8653 C.ar    1  UNL1        0.1659
     36 F         138.8169  141.4890  169.9107 F       1  UNL1       -0.2020
@<TRIPOS>BOND
     1    11    12    1
     2    12    13    1
     3    12    14    1
     4    14    15    2
     5    14    16   am
     6    16    17    1
     7    17    18   ar
     8    18    19   ar
     9    19     1    1
    10     1     2   ar
    11     2     3   ar
    12     3    27    1
    13    27    28    1
    14    28    29   ar
    15    29    30    1
    16    29    31   ar
    17    31    32   ar
    18    32    33   ar
    19    33    34    1
    20    33    35   ar
    21    35    36    1
    22     3     4   ar
    23     4     5   ar
    24     5     6   ar
    25     6     7    1
    26     6     8   ar
    27     8     9   ar
    28     9    10   ar
    29    19    20   ar
    30    20    21   ar
    31    21    22    1
    32    21    23   ar
    33    23    12    1
    34    23    17   ar
    35    10     1   ar
    36    35    28   ar
    37    10     4   ar
    38    16    24    1
    39    22    25    1
    40    22    26    1
@<TRIPOS>MOLECULE
*****
 36 40 0 0 0
SMALL
GASTEIGER

@<TRIPOS>ATOM
      1 N         139.7913  138.9649  160.9481 N.ar    1  UNL1       -0.1967
      2 N         139.7396  138.0329  162.1223 N.ar    1  UNL1       -0.1666
      3 C         139.1411  138.7772  163.2789 C.ar    1  UNL1        0.0850
      4 C         138.8229  140.1693  162.8195 C.ar    1  UNL1        0.0342
      5 C         138.2191  141.3463  163.5267 C.ar    1  UNL1        0.0141
      6 C         138.0173  142.6391  162.7936 C.ar    1  UNL1        0.0578
      7 CL        137.4135  143.8161  163.5009 Cl      1  UNL1       -0.0822
      8 C         138.4191  142.7551  161.3530 C.ar    1  UNL1        0.0129
      9 C         139.0229  141.5782  160.6458 C.ar    1  UNL1        0.0202
     10 C         139.2248  140.2853  161.3790 C.ar    1  UNL1        0.0871
     11 C         142.6897  137.4302  154.2323 C.3     1  UNL1        0.0137
     12 C         142.1637  137.7606  155.5978 C.3     1  UNL1        0.0932
     13 C         140.8781  137.1999  155.0660 C.3     1  UNL1        0.0137
     14 C         143.5593  138.2522  155.8440 C.2     1  UNL1        0.2302
     15 O         144.6887  138.2307  154.8572 O.2     1  UNL1       -0.2744
     16 N         143.6271  138.7693  157.2505 N.am    1  UNL1       -0.2692
     17 C         142.2735  138.5972  157.8734 C.ar    1  UNL1        0.1363
     18 N         141.7476  138.9275  159.2388 N.ar    1  UNL1       -0.1951
     19 C         140.3173  138.6345  159.5827 C.ar    1  UNL1        0.2553
     20 N         139.4128  138.0111  158.5612 N.ar    1  UNL1       -0.1957
     21 C         139.9387  137.6808  157.1958 C.ar    1  UNL1        0.1276
     22 N         139.0343  137.0574  156.1744 N.pl3   1  UNL1       -0.3427
     23 C         141.3690  137.9738  156.8520 C.ar    1  UNL1        0.0484
     24 H         144.4207  139.1540  157.6879 H       1  UNL1        0.1563
     25 H         138.0955  136.8650  156.4001 H       1  UNL1        0.1437
     26 H         139.3795  136.8405  155.2782 H       1  UNL1        0.1437
     27 C         138.9026  138.2263  164.6535 C.3     1  UNL1        0.0785
     28 C         139.5431  138.8769  165.8437 C.ar    1  UNL1        0.0410
     29 C         141.0124  139.1784  165.8335 C.ar    1  UNL1        0.1388
     30 F         141.8414  138.8294  164.6331 F       1  UNL1       -0.2044
     31 C         141.6527  139.8290  167.0237 C.ar    1  UNL1        0.0318
     32 C         140.8238  140.1780  168.2241 C.ar    1  UNL1        0.0342
     33 C         139.3545  139.8765  168.2343 C.ar    1  UNL1        0.1672
     34 F         138.5256  140.2255  169.4348 F       1  UNL1       -0.2018
     35 C         138.7141  139.2259  167.0441 C.ar    1  UNL1        0.1659
     36 F         137.2448  138.9243  167.0543 F       1  UNL1       -0.2020
@<TRIPOS>BOND
     1    11    12    1
     2    12    13    1
     3    12    14    1
     4    14    15    2
     5    14    16   am
     6    16    17    1
     7    17    18   ar
     8    18    19   ar
     9    19     1    1
    10     1     2   ar
    11     2     3   ar
    12     3    27    1
    13    27    28    1
    14    28    29   ar
    15    29    30    1
    16    29    31   ar
    17    31    32   ar
    18    32    33   ar
    19    33    34    1
    20    33    35   ar
    21    35    36    1
    22     3     4   ar
    23     4     5   ar
    24     5     6   ar
    25     6     7    1
    26     6     8   ar
    27     8     9   ar
    28     9    10   ar
    29    19    20   ar
    30    20    21   ar
    31    21    22    1
    32    21    23   ar
    33    23    12    1
    34    23    17   ar
    35    10     1   ar
    36    35    28   ar
    37    10     4   ar
    38    16    24    1
    39    22    25    1
    40    22    26    1
@<TRIPOS>MOLECULE
*****
 36 40 0 0 0
SMALL
GASTEIGER

@<TRIPOS>ATOM
      1 N         140.8487  144.2623  161.2609 N.ar    1  UNL1       -0.1967
      2 N         139.5707  143.9707  161.9900 N.ar    1  UNL1       -0.1666
      3 C         139.9130  143.6459  163.4138 C.ar    1  UNL1        0.0850
      4 C         141.4027  143.7369  163.5647 C.ar    1  UNL1        0.0342
      5 C         142.3073  143.5220  164.7418 C.ar    1  UNL1        0.0141
      6 C         143.7901  143.6881  164.5883 C.ar    1  UNL1        0.0578
      7 CL        144.6947  143.4732  165.7654 Cl      1  UNL1       -0.0822
      8 C         144.3684  144.0690  163.2576 C.ar    1  UNL1        0.0129
      9 C         143.4638  144.2838  162.0806 C.ar    1  UNL1        0.0202
     10 C         141.9810  144.1178  162.2341 C.ar    1  UNL1        0.0871
     11 C         141.2339  146.3146  154.0847 C.3     1  UNL1        0.0137
     12 C         141.1099  145.9436  155.5329 C.3     1  UNL1        0.0932
     13 C         142.2333  144.9986  155.2246 C.3     1  UNL1        0.0137
     14 C         140.0126  146.9662  155.5384 C.2     1  UNL1        0.2302
     15 O         139.5617  147.7821  154.3632 O.2     1  UNL1       -0.2744
     16 N         139.4452  147.0297  156.9255 N.am    1  UNL1       -0.2692
     17 C         140.1919  146.0463  157.7773 C.ar    1  UNL1        0.1363
     18 N         140.0679  145.6754  159.2253 N.ar    1  UNL1       -0.1951
     19 C         140.9727  144.6333  159.8127 C.ar    1  UNL1        0.2553
     20 N         142.0017  143.9620  158.9520 N.ar    1  UNL1       -0.1957
     21 C         142.1257  144.3330  157.5039 C.ar    1  UNL1        0.1276
     22 N         143.1546  143.6617  156.6432 N.pl3   1  UNL1       -0.3427
     23 C         141.2208  145.3751  156.9166 C.ar    1  UNL1        0.0484
     24 H         138.7115  147.6141  157.2244 H       1  UNL1        0.1563
     25 H         143.7485  142.9777  157.0288 H       1  UNL1        0.1437
     26 H         143.2360  143.9052  155.6928 H       1  UNL1        0.1437
     27 C         138.9371  143.2924  164.4967 C.3     1  UNL1        0.0785
     28 C         138.9286  141.9089  165.0762 C.ar    1  UNL1        0.0410
     29 C         138.2251  140.7978  164.3547 C.ar    1  UNL1        0.1388
     30 F         137.5301  141.0702  163.0536 F       1  UNL1       -0.2044
     31 C         138.2167  139.4144  164.9342 C.ar    1  UNL1        0.0318
     32 C         138.9117  139.1419  166.2352 C.ar    1  UNL1        0.0342
     33 C         139.6152  140.2529  166.9567 C.ar    1  UNL1        0.1672
     34 F         140.3103  139.9805  168.2578 F       1  UNL1       -0.2018
     35 C         139.6237  141.6365  166.3772 C.ar    1  UNL1        0.1659
     36 F         140.3272  142.7475  167.0987 F       1  UNL1       -0.2020
@<TRIPOS>BOND
     1    11    12    1
     2    12    13    1
     3    12    14    1
     4    14    15    2
     5    14    16   am
     6    16    17    1
     7    17    18   ar
     8    18    19   ar
     9    19     1    1
    10     1     2   ar
    11     2     3   ar
    12     3    27    1
    13    27    28    1
    14    28    29   ar
    15    29    30    1
    16    29    31   ar
    17    31    32   ar
    18    32    33   ar
    19    33    34    1
    20    33    35   ar
    21    35    36    1
    22     3     4   ar
    23     4     5   ar
    24     5     6   ar
    25     6     7    1
    26     6     8   ar
    27     8     9   ar
    28     9    10   ar
    29    19    20   ar
    30    20    21   ar
    31    21    22    1
    32    21    23   ar
    33    23    12    1
    34    23    17   ar
    35    10     1   ar
    36    35    28   ar
    37    10     4   ar
    38    16    24    1
    39    22    25    1
    40    22    26    1
@<TRIPOS>MOLECULE
*****
 36 40 0 0 0
SMALL
GASTEIGER

@<TRIPOS>ATOM
      1 N         140.7898  143.9574  161.0812 N.ar    1  UNL1       -0.1967
      2 N         139.5311  143.4442  161.7157 N.ar    1  UNL1       -0.1666
      3 C         139.8383  143.1006  163.1431 C.ar    1  UNL1        0.0850
      4 C         141.2868  143.4014  163.3908 C.ar    1  UNL1        0.0342
      5 C         142.1463  143.2616  164.6122 C.ar    1  UNL1        0.0141
      6 C         143.5938  143.6512  164.5592 C.ar    1  UNL1        0.0578
      7 CL        144.4534  143.5114  165.7806 Cl      1  UNL1       -0.0822
      8 C         144.1819  144.1808  163.2849 C.ar    1  UNL1        0.0129
      9 C         143.3223  144.3207  162.0636 C.ar    1  UNL1        0.0202
     10 C         141.8748  143.9310  162.1166 C.ar    1  UNL1        0.0871
     11 C         141.2957  146.4500  154.0535 C.3     1  UNL1        0.0137
     12 C         141.1481  145.9909  155.4740 C.3     1  UNL1        0.0932
     13 C         142.2587  145.0472  155.1188 C.3     1  UNL1        0.0137
     14 C         140.0683  147.0305  155.5321 C.2     1  UNL1        0.2302
     15 O         139.6456  147.9266  154.4059 O.2     1  UNL1       -0.2744
     16 N         139.4856  147.0167  156.9142 N.am    1  UNL1       -0.2692
     17 C         140.2052  145.9685  157.7102 C.ar    1  UNL1        0.1363
     18 N         140.0575  145.5095  159.1306 N.ar    1  UNL1       -0.1951
     19 C         140.9374  144.4165  159.6608 C.ar    1  UNL1        0.2553
     20 N         141.9648  143.7825  158.7707 N.ar    1  UNL1       -0.1957
     21 C         142.1125  144.2415  157.3503 C.ar    1  UNL1        0.1276
     22 N         143.1400  143.6076  156.4602 N.pl3   1  UNL1       -0.3427
     23 C         141.2326  145.3345  156.8201 C.ar    1  UNL1        0.0484
     24 H         138.7585  147.5941  157.2414 H       1  UNL1        0.1563
     25 H         143.7174  142.8902  156.8082 H       1  UNL1        0.1437
     26 H         143.2369  143.9088  155.5279 H       1  UNL1        0.1437
     27 C         138.8675  142.5523  164.1465 C.3     1  UNL1        0.0785
     28 C         138.9337  141.1070  164.5420 C.ar    1  UNL1        0.0410
     29 C         139.3238  140.7291  165.9403 C.ar    1  UNL1        0.1388
     30 F         139.6477  141.7966  166.9430 F       1  UNL1       -0.2044
     31 C         139.3900  139.2837  166.3357 C.ar    1  UNL1        0.0318
     32 C         139.0662  138.2162  165.3330 C.ar    1  UNL1        0.0342
     33 C         138.6761  138.5940  163.9348 C.ar    1  UNL1        0.1672
     34 F         138.3522  137.5264  162.9320 F       1  UNL1       -0.2018
     35 C         138.6099  140.0394  163.5393 C.ar    1  UNL1        0.1659
     36 F         138.2197  140.4173  162.1411 F       1  UNL1       -0.2020
@<TRIPOS>BOND
     1    11    12    1
     2    12    13    1
     3    12    14    1
     4    14    15    2
     5    14    16   am
     6    16    17    1
     7    17    18   ar
     8    18    19   ar
     9    19     1    1
    10     1     2   ar
    11     2     3   ar
    12     3    27    1
    13    27    28    1
    14    28    29   ar
    15    29    30    1
    16    29    31   ar
    17    31    32   ar
    18    32    33   ar
    19    33    34    1
    20    33    35   ar
    21    35    36    1
    22     3     4   ar
    23     4     5   ar
    24     5     6   ar
    25     6     7    1
    26     6     8   ar
    27     8     9   ar
    28     9    10   ar
    29    19    20   ar
    30    20    21   ar
    31    21    22    1
    32    21    23   ar
    33    23    12    1
    34    23    17   ar
    35    10     1   ar
    36    35    28   ar
    37    10     4   ar
    38    16    24    1
    39    22    25    1
    40    22    26    1
@<TRIPOS>MOLECULE
*****
 36 40 0 0 0
SMALL
GASTEIGER

@<TRIPOS>ATOM
      1 N         142.2389  142.2821  162.9191 N.ar    1  UNL1       -0.1967
      2 N         142.9151  141.5958  164.0688 N.ar    1  UNL1       -0.1666
      3 C         142.2048  141.9934  165.3287 C.ar    1  UNL1        0.0850
      4 C         141.0895  142.9254  164.9577 C.ar    1  UNL1        0.0342
      5 C         140.0575  143.6347  165.7834 C.ar    1  UNL1        0.0141
      6 C         139.0467  144.5223  165.1201 C.ar    1  UNL1        0.0578
      7 CL        138.0146  145.2316  165.9459 Cl      1  UNL1       -0.0822
      8 C         139.0677  144.7008  163.6308 C.ar    1  UNL1        0.0129
      9 C         140.0997  143.9915  162.8051 C.ar    1  UNL1        0.0202
     10 C         141.1106  143.1038  163.4685 C.ar    1  UNL1        0.0871
     11 C         144.2105  141.4045  155.7637 C.3     1  UNL1        0.0137
     12 C         143.8259  141.5197  157.2091 C.3     1  UNL1        0.0932
     13 C         143.5926  142.9620  156.8693 C.3     1  UNL1        0.0137
     14 C         144.1396  140.0534  157.2467 C.2     1  UNL1        0.2302
     15 O         144.6101  139.2225  156.0899 O.2     1  UNL1       -0.2744
     16 N         143.9001  139.5639  158.6442 N.am    1  UNL1       -0.2692
     17 C         143.4384  140.7277  159.4703 C.ar    1  UNL1        0.1363
     18 N         143.0539  140.8429  160.9155 N.ar    1  UNL1       -0.1951
     19 C         142.6234  142.1669  161.4738 C.ar    1  UNL1        0.2553
     20 N         142.5776  143.3757  160.5869 N.ar    1  UNL1       -0.1957
     21 C         142.9621  143.2605  159.1416 C.ar    1  UNL1        0.1276
     22 N         142.9162  144.4693  158.2546 N.pl3   1  UNL1       -0.3427
     23 C         143.3925  141.9365  158.5833 C.ar    1  UNL1        0.0484
     24 H         144.0242  138.6408  158.9632 H       1  UNL1        0.1563
     25 H         142.6337  145.3383  158.6211 H       1  UNL1        0.1437
     26 H         143.1686  144.3937  157.3061 H       1  UNL1        0.1437
     27 C         142.5492  141.5388  166.7161 C.3     1  UNL1        0.0785
     28 C         141.4575  141.2524  167.7041 C.ar    1  UNL1        0.0410
     29 C         140.4504  140.1780  167.4186 C.ar    1  UNL1        0.1388
     30 F         140.5350  139.3900  166.1450 F       1  UNL1       -0.2044
     31 C         139.3588  139.8916  168.4066 C.ar    1  UNL1        0.0318
     32 C         139.2742  140.6796  169.6801 C.ar    1  UNL1        0.0342
     33 C         140.2812  141.7539  169.9657 C.ar    1  UNL1        0.1672
     34 F         140.1966  142.5419  171.2393 F       1  UNL1       -0.2018
     35 C         141.3729  142.0403  168.9776 C.ar    1  UNL1        0.1659
     36 F         142.3800  143.1147  169.2632 F       1  UNL1       -0.2020
@<TRIPOS>BOND
     1    11    12    1
     2    12    13    1
     3    12    14    1
     4    14    15    2
     5    14    16   am
     6    16    17    1
     7    17    18   ar
     8    18    19   ar
     9    19     1    1
    10     1     2   ar
    11     2     3   ar
    12     3    27    1
    13    27    28    1
    14    28    29   ar
    15    29    30    1
    16    29    31   ar
    17    31    32   ar
    18    32    33   ar
    19    33    34    1
    20    33    35   ar
    21    35    36    1
    22     3     4   ar
    23     4     5   ar
    24     5     6   ar
    25     6     7    1
    26     6     8   ar
    27     8     9   ar
    28     9    10   ar
    29    19    20   ar
    30    20    21   ar
    31    21    22    1
    32    21    23   ar
    33    23    12    1
    34    23    17   ar
    35    10     1   ar
    36    35    28   ar
    37    10     4   ar
    38    16    24    1
    39    22    25    1
    40    22    26    1
@<TRIPOS>MOLECULE
*****
 36 40 0 0 0
SMALL
GASTEIGER

@<TRIPOS>ATOM
      1 N         142.2417  138.3413  160.7307 N.ar    1  UNL1       -0.1967
      2 N         141.7317  137.5113  161.8713 N.ar    1  UNL1       -0.1666
      3 C         142.2553  138.1036  163.1461 C.ar    1  UNL1        0.0850
      4 C         143.0889  139.2997  162.7932 C.ar    1  UNL1        0.0342
      5 C         143.8545  140.2741  163.6384 C.ar    1  UNL1        0.0141
      6 C         144.6117  141.3953  162.9909 C.ar    1  UNL1        0.0578
      7 CL        145.3774  142.3698  163.8361 Cl      1  UNL1       -0.0822
      8 C         144.6034  141.5423  161.4981 C.ar    1  UNL1        0.0129
      9 C         143.8377  140.5679  160.6529 C.ar    1  UNL1        0.0202
     10 C         143.0805  139.4466  161.3005 C.ar    1  UNL1        0.0871
     11 C         140.5500  137.2499  153.5332 C.3     1  UNL1        0.0137
     12 C         140.8297  137.4841  154.9882 C.3     1  UNL1        0.0932
     13 C         142.2325  137.1029  154.6183 C.3     1  UNL1        0.0137
     14 C         139.3684  137.8163  155.0539 C.2     1  UNL1        0.2302
     15 O         138.4063  137.7927  153.9034 O.2     1  UNL1       -0.2744
     16 N         139.0383  138.1761  156.4722 N.am    1  UNL1       -0.2692
     17 C         140.2955  138.0663  157.2830 C.ar    1  UNL1        0.1363
     18 N         140.5752  138.3005  158.7379 N.ar    1  UNL1       -0.1951
     19 C         141.9620  138.1071  159.2757 C.ar    1  UNL1        0.2553
     20 N         143.0692  137.6794  158.3585 N.ar    1  UNL1       -0.1957
     21 C         142.7895  137.4451  156.9036 C.ar    1  UNL1        0.1276
     22 N         143.8967  137.0174  155.9864 N.pl3   1  UNL1       -0.3427
     23 C         141.4027  137.6386  156.3658 C.ar    1  UNL1        0.0484
     24 H         138.1520  138.4383  156.8114 H       1  UNL1        0.1563
     25 H         144.8069  136.8904  156.3393 H       1  UNL1        0.1437
     26 H         143.7131  136.8637  155.0314 H       1  UNL1        0.1437
     27 C         141.9916  137.5900  164.5305 C.3     1  UNL1        0.0785
     28 C         141.2067  138.4210  165.5018 C.ar    1  UNL1        0.0410
     29 C         141.9185  139.2076  166.5623 C.ar    1  UNL1        0.1388
     30 F         143.4152  139.1632  166.6514 F       1  UNL1       -0.2044
     31 C         141.1336  140.0385  167.5335 C.ar    1  UNL1        0.0318
     32 C         139.6369  140.0828  167.4444 C.ar    1  UNL1        0.0342
     33 C         138.9252  139.2963  166.3840 C.ar    1  UNL1        0.1672
     34 F         137.4284  139.3407  166.2948 F       1  UNL1       -0.2018
     35 C         139.7100  138.4653  165.4127 C.ar    1  UNL1        0.1659
     36 F         138.9982  137.6787  164.3522 F       1  UNL1       -0.2020
@<TRIPOS>BOND
     1    11    12    1
     2    12    13    1
     3    12    14    1
     4    14    15    2
     5    14    16   am
     6    16    17    1
     7    17    18   ar
     8    18    19   ar
     9    19     1    1
    10     1     2   ar
    11     2     3   ar
    12     3    27    1
    13    27    28    1
    14    28    29   ar
    15    29    30    1
    16    29    31   ar
    17    31    32   ar
    18    32    33   ar
    19    33    34    1
    20    33    35   ar
    21    35    36    1
    22     3     4   ar
    23     4     5   ar
    24     5     6   ar
    25     6     7    1
    26     6     8   ar
    27     8     9   ar
    28     9    10   ar
    29    19    20   ar
    30    20    21   ar
    31    21    22    1
    32    21    23   ar
    33    23    12    1
    34    23    17   ar
    35    10     1   ar
    36    35    28   ar
    37    10     4   ar
    38    16    24    1
    39    22    25    1
    40    22    26    1
@<TRIPOS>MOLECULE
*****
 36 40 0 0 0
SMALL
GASTEIGER

@<TRIPOS>ATOM
      1 N         142.0150  138.2972  160.3956 N.ar    1  UNL1       -0.1967
      2 N         143.3163  138.7801  160.9642 N.ar    1  UNL1       -0.1666
      3 C         143.1064  139.0708  162.4207 C.ar    1  UNL1        0.0850
      4 C         141.6752  138.7676  162.7523 C.ar    1  UNL1        0.0342
      5 C         140.8991  138.8651  164.0321 C.ar    1  UNL1        0.0141
      6 C         139.4486  138.4845  164.0605 C.ar    1  UNL1        0.0578
      7 CL        138.6724  138.5821  165.3404 Cl      1  UNL1       -0.0822
      8 C         138.7740  138.0064  162.8089 C.ar    1  UNL1        0.0129
      9 C         139.5501  137.9089  161.5290 C.ar    1  UNL1        0.0202
     10 C         141.0007  138.2895  161.5007 C.ar    1  UNL1        0.0871
     11 C         140.5018  136.3748  153.3336 C.3     1  UNL1        0.0137
     12 C         140.7460  136.7790  154.7574 C.3     1  UNL1        0.0932
     13 C         142.1437  136.3067  154.4866 C.3     1  UNL1        0.0137
     14 C         139.2973  137.1668  154.7305 C.2     1  UNL1        0.2302
     15 O         138.3703  137.0329  153.5589 O.2     1  UNL1       -0.2744
     16 N         138.9383  137.7120  156.0810 N.am    1  UNL1       -0.2692
     17 C         140.1652  137.6611  156.9426 C.ar    1  UNL1        0.1363
     18 N         140.4093  138.0653  158.3663 N.ar    1  UNL1       -0.1951
     19 C         141.7707  137.8930  158.9718 C.ar    1  UNL1        0.2553
     20 N         142.8880  137.3164  158.1538 N.ar    1  UNL1       -0.1957
     21 C         142.6438  136.9121  156.7301 C.ar    1  UNL1        0.1276
     22 N         143.7611  136.3355  155.9120 N.pl3   1  UNL1       -0.3427
     23 C         141.2824  137.0845  156.1245 C.ar    1  UNL1        0.0484
     24 H         138.0529  138.0447  156.3541 H       1  UNL1        0.1563
     25 H         144.6547  136.2224  156.3095 H       1  UNL1        0.1437
     26 H         143.6008  136.0702  154.9775 H       1  UNL1        0.1437
     27 C         144.1452  139.5761  163.3776 C.3     1  UNL1        0.0785
     28 C         144.0889  140.9932  163.8661 C.ar    1  UNL1        0.0410
     29 C         143.7041  141.2819  165.2869 C.ar    1  UNL1        0.1388
     30 F         143.3757  140.1536  166.2191 F       1  UNL1       -0.2044
     31 C         143.6478  142.6990  165.7754 C.ar    1  UNL1        0.0318
     32 C         143.9762  143.8273  164.8432 C.ar    1  UNL1        0.0342
     33 C         144.3609  143.5385  163.4225 C.ar    1  UNL1        0.1672
     34 F         144.6894  144.6669  162.4902 F       1  UNL1       -0.2018
     35 C         144.4173  142.1215  162.9339 C.ar    1  UNL1        0.1659
     36 F         144.8020  141.8327  161.5131 F       1  UNL1       -0.2020
@<TRIPOS>BOND
     1    11    12    1
     2    12    13    1
     3    12    14    1
     4    14    15    2
     5    14    16   am
     6    16    17    1
     7    17    18   ar
     8    18    19   ar
     9    19     1    1
    10     1     2   ar
    11     2     3   ar
    12     3    27    1
    13    27    28    1
    14    28    29   ar
    15    29    30    1
    16    29    31   ar
    17    31    32   ar
    18    32    33   ar
    19    33    34    1
    20    33    35   ar
    21    35    36    1
    22     3     4   ar
    23     4     5   ar
    24     5     6   ar
    25     6     7    1
    26     6     8   ar
    27     8     9   ar
    28     9    10   ar
    29    19    20   ar
    30    20    21   ar
    31    21    22    1
    32    21    23   ar
    33    23    12    1
    34    23    17   ar
    35    10     1   ar
    36    35    28   ar
    37    10     4   ar
    38    16    24    1
    39    22    25    1
    40    22    26    1
@<TRIPOS>MOLECULE
*****
 36 40 0 0 0
SMALL
GASTEIGER

@<TRIPOS>ATOM
      1 N         141.9448  138.2876  160.9636 N.ar    1  UNL1       -0.1967
      2 N         143.2281  138.6660  161.6419 N.ar    1  UNL1       -0.1666
      3 C         142.9653  138.7528  163.1161 C.ar    1  UNL1        0.0850
      4 C         141.5194  138.4280  163.3489 C.ar    1  UNL1        0.0342
      5 C         140.6956  138.3569  164.6005 C.ar    1  UNL1        0.0141
      6 C         139.2413  137.9984  164.5217 C.ar    1  UNL1        0.0578
      7 CL        138.4175  137.9273  165.7733 Cl      1  UNL1       -0.0822
      8 C         138.6106  137.7109  163.1914 C.ar    1  UNL1        0.0129
      9 C         139.4344  137.7820  161.9399 C.ar    1  UNL1        0.0202
     10 C         140.8888  138.1406  162.0187 C.ar    1  UNL1        0.0871
     11 C         140.6889  137.4099  153.6486 C.3     1  UNL1        0.0137
     12 C         140.8822  137.6066  155.1231 C.3     1  UNL1        0.0932
     13 C         142.2674  137.1003  154.8496 C.3     1  UNL1        0.0137
     14 C         139.4566  138.0718  155.0883 C.2     1  UNL1        0.2302
     15 O         138.5826  138.1456  153.8715 O.2     1  UNL1       -0.2744
     16 N         139.0584  138.4502  156.4841 N.am    1  UNL1       -0.2692
     17 C         140.2379  138.2188  157.3815 C.ar    1  UNL1        0.1363
     18 N         140.4311  138.4156  158.8559 N.ar    1  UNL1       -0.1951
     19 C         141.7515  138.0909  159.4891 C.ar    1  UNL1        0.2553
     20 N         142.8787  137.5695  158.6479 N.ar    1  UNL1       -0.1957
     21 C         142.6855  137.3728  157.1735 C.ar    1  UNL1        0.1276
     22 N         143.8127  136.8514  156.3324 N.pl3   1  UNL1       -0.3427
     23 C         141.3651  137.6975  156.5403 C.ar    1  UNL1        0.0484
     24 H         138.1775  138.7906  156.7624 H       1  UNL1        0.1563
     25 H         144.6794  136.6384  156.7480 H       1  UNL1        0.1437
     26 H         143.6859  136.7223  155.3646 H       1  UNL1        0.1437
     27 C         143.9715  139.1028  164.1720 C.3     1  UNL1        0.0785
     28 C         144.0391  140.5016  164.7092 C.ar    1  UNL1        0.0410
     29 C         144.8336  141.5464  163.9831 C.ar    1  UNL1        0.1388
     30 F         145.5605  141.1923  162.7197 F       1  UNL1       -0.2044
     31 C         144.9011  142.9452  164.5203 C.ar    1  UNL1        0.0318
     32 C         144.1742  143.2993  165.7837 C.ar    1  UNL1        0.0342
     33 C         143.3798  142.2546  166.5098 C.ar    1  UNL1        0.1672
     34 F         142.6528  142.6088  167.7733 F       1  UNL1       -0.2018
     35 C         143.3122  140.8558  165.9726 C.ar    1  UNL1        0.1659
     36 F         142.5177  139.8110  166.6988 F       1  UNL1       -0.2020
@<TRIPOS>BOND
     1    11    12    1
     2    12    13    1
     3    12    14    1
     4    14    15    2
     5    14    16   am
     6    16    17    1
     7    17    18   ar
     8    18    19   ar
     9    19     1    1
    10     1     2   ar
    11     2     3   ar
    12     3    27    1
    13    27    28    1
    14    28    29   ar
    15    29    30    1
    16    29    31   ar
    17    31    32   ar
    18    32    33   ar
    19    33    34    1
    20    33    35   ar
    21    35    36    1
    22     3     4   ar
    23     4     5   ar
    24     5     6   ar
    25     6     7    1
    26     6     8   ar
    27     8     9   ar
    28     9    10   ar
    29    19    20   ar
    30    20    21   ar
    31    21    22    1
    32    21    23   ar
    33    23    12    1
    34    23    17   ar
    35    10     1   ar
    36    35    28   ar
    37    10     4   ar
    38    16    24    1
    39    22    25    1
    40    22    26    1
