@<TRIPOS>MOLECULE
*****
 59 65 0 0 0
SMALL
GASTEIGER

@<TRIPOS>ATOM
      1 C         142.3581  138.7612  160.9339 C.3     1  UNL1        0.1894
      2 C         142.5674  137.8199  159.7849 C.3     1  UNL1        0.0746
      3 C         141.9169  138.4168  158.5722 C.3     1  UNL1        0.1555
      4 N         141.3057  139.7271  158.9718 N.am    1  UNL1       -0.2678
      5 C         140.5537  140.6606  158.0701 C.2     1  UNL1        0.2440
      6 O         140.3589  140.3123  156.6242 O.2     1  UNL1       -0.2731
      7 C         141.5784  139.9399  160.4314 C.3     1  UNL1        0.1373
      8 C         141.8836  137.8101  157.2008 C.2     1  UNL1        0.2409
      9 O         142.9853  138.1003  156.2253 O.2     1  UNL1       -0.2733
     10 N         140.7484  136.9130  156.8050 N.am    1  UNL1       -0.2985
     11 H         140.0252  136.7225  157.4453 H       1  UNL1        0.1498
     12 C         140.7150  136.3063  155.4336 C.3     1  UNL1        0.1271
     13 C         141.0090  135.3706  154.2987 C.3     1  UNL1        0.0290
     14 C         141.6463  135.1484  155.6383 C.3     1  UNL1        0.0270
     15 C         139.7721  137.2535  154.7526 C.2     1  UNL1        0.2564
     16 O         140.2741  138.1628  153.6703 O.2     1  UNL1       -0.2718
     17 N         138.3272  137.2914  155.1538 N.am    1  UNL1       -0.1875
     18 H         137.9978  136.6946  155.8641 H       1  UNL1        0.1762
     19 S         137.3844  138.2386  154.4728 S.O2    1  UNL1        0.0543
     20 O         137.6126  139.2471  155.5594 O.2     1  UNL1       -0.1545
     21 O         137.1561  137.2300  153.3861 O.2     1  UNL1       -0.1545
     22 C         136.4415  139.1858  153.7917 C.3     1  UNL1        0.1490
     23 C         136.0406  139.9716  152.5787 C.3     1  UNL1        0.0273
     24 C         135.2093  140.0405  153.8254 C.3     1  UNL1        0.0273
     25 C         142.5519  134.3516  156.5300 C.3     1  UNL1        0.0021
     26 C         143.0184  133.0274  157.0581 C.3     1  UNL1        0.0001
     27 C         143.6538  134.2956  157.5462 C.3     1  UNL1        0.0001
     28 O         142.8435  138.5592  162.3387 O.3     1  UNL1       -0.4621
     29 C         140.0047  139.0613  165.7940 C.ar    1  UNL1        0.1579
     30 C         139.8193  137.9274  164.8297 C.ar    1  UNL1        0.1388
     31 N         140.7655  137.7601  163.6779 N.ar    1  UNL1       -0.2069
     32 C         141.8972  138.7266  163.4905 C.ar    1  UNL1        0.2249
     33 C         142.0826  139.8605  164.4548 C.ar    1  UNL1        0.0570
     34 C         143.2143  140.8270  164.2674 C.ar    1  UNL1        0.0161
     35 C         143.3997  141.9608  165.2317 C.ar    1  UNL1        0.0578
     36 CL        144.5314  142.9274  165.0443 Cl      1  UNL1       -0.0822
     37 C         142.4534  142.1282  166.3835 C.ar    1  UNL1        0.0115
     38 C         141.3218  141.1617  166.5709 C.ar    1  UNL1        0.0041
     39 C         141.1364  140.0279  165.6066 C.ar    1  UNL1        0.0401
     40 C         137.7265  138.5389  166.9285 C.3     1  UNL1        0.2525
     41 O         139.0584  139.2286  166.9458 O.3     1  UNL1       -0.4699
     42 C         139.9965  141.9426  158.6143 C.3     1  UNL1        0.1512
     43 C         140.6375  143.2507  158.2564 C.3     1  UNL1        0.0270
     44 C         139.7995  144.4891  158.1383 C.3     1  UNL1        0.0021
     45 C         140.4405  145.7972  157.7804 C.3     1  UNL1        0.0001
     46 C         141.9195  145.8669  157.5407 C.3     1  UNL1        0.0000
     47 C         142.7576  144.6285  157.6589 C.3     1  UNL1        0.0001
     48 C         142.1166  143.3204  158.0167 C.3     1  UNL1        0.0021
     49 N         138.7984  141.9164  159.5163 N.am    1  UNL1       -0.2640
     50 C         138.9001  142.4513  160.9140 C.2     1  UNL1        0.4021
     51 O         140.1999  143.0124  161.4096 O.2     1  UNL1       -0.2264
     52 H         137.9452  141.5482  159.1910 H       1  UNL1        0.1532
     53 O         137.7019  142.4252  161.8162 O.3     1  UNL1       -0.4295
     54 C         137.8816  142.4922  163.3038 C.3     1  UNL1        0.2645
     55 C         137.7002  141.2585  164.1375 C.3     1  UNL1        0.0567
     56 C         138.2426  143.7930  163.9579 C.3     1  UNL1        0.4342
     57 F         138.6036  145.0937  164.6118 F       1  UNL1       -0.1664
     58 F         137.1451  144.4789  163.1996 F       1  UNL1       -0.1664
     59 F         139.3401  143.1070  164.7161 F       1  UNL1       -0.1664
@<TRIPOS>BOND
     1    40    41    1
     2    41    29    1
     3    29    30   ar
     4    30    31   ar
     5    31    32   ar
     6    32    28    1
     7     1    28    1
     8     1     2    1
     9     2     3    1
    10     3     8    1
    11     8     9    2
    12     8    10   am
    13    12    10    1
    14    12    15    1
    15    15    16    2
    16    15    17   am
    17    17    19    1
    18    19    20    2
    19    19    21    2
    20    19    22    1
    21    22    23    1
    22    23    24    1
    23    12    13    1
    24    13    14    1
    25    14    25    1
    26    25    26    1
    27    26    27    1
    28     3     4    1
    29     4     5   am
    30     5     6    2
    31     5    42    1
    32    42    49    1
    33    49    50   am
    34    50    51    2
    35    50    53    1
    36    53    54    1
    37    54    55    1
    38    54    56    1
    39    56    57    1
    40    56    58    1
    41    56    59    1
    42    42    43    1
    43    43    44    1
    44    44    45    1
    45    45    46    1
    46    46    47    1
    47    47    48    1
    48     4     7    1
    49    32    33   ar
    50    33    34   ar
    51    34    35   ar
    52    35    36    1
    53    35    37   ar
    54    37    38   ar
    55    38    39   ar
    56    39    29   ar
    57     7     1    1
    58    39    33   ar
    59    14    12    1
    60    27    25    1
    61    48    43    1
    62    24    22    1
    63    10    11    1
    64    17    18    1
    65    49    52    1
@<TRIPOS>MOLECULE
*****
 59 65 0 0 0
SMALL
GASTEIGER

@<TRIPOS>ATOM
      1 C         142.9214  138.2743  160.6635 C.3     1  UNL1        0.1894
      2 C         142.9999  137.3818  159.4605 C.3     1  UNL1        0.0746
      3 C         142.2309  138.0328  158.3493 C.3     1  UNL1        0.1555
      4 N         141.6771  139.3277  158.8656 N.am    1  UNL1       -0.2678
      5 C         140.8430  140.3023  158.0880 C.2     1  UNL1        0.2440
      6 O         140.4940  140.0166  156.6575 O.2     1  UNL1       -0.2731
      7 C         142.1038  139.4770  160.2958 C.3     1  UNL1        0.1373
      8 C         142.0479  137.4851  156.9649 C.2     1  UNL1        0.2409
      9 O         143.1143  137.6900  155.9302 O.2     1  UNL1       -0.2733
     10 N         140.7984  136.7324  156.6153 N.am    1  UNL1       -0.2985
     11 H         140.0984  136.5979  157.2944 H       1  UNL1        0.1498
     12 C         140.6154  136.1847  155.2309 C.3     1  UNL1        0.1271
     13 C         140.7512  135.2762  154.0451 C.3     1  UNL1        0.0290
     14 C         141.4701  134.9554  155.3220 C.3     1  UNL1        0.0270
     15 C         139.6970  137.2238  154.6590 C.2     1  UNL1        0.2564
     16 O         140.2380  138.2789  153.7403 O.2     1  UNL1       -0.2718
     17 N         138.2377  137.2077  155.0058 N.am    1  UNL1       -0.1875
     18 H         137.8827  136.5151  155.6087 H       1  UNL1        0.1762
     19 S         137.3195  138.2467  154.4339 S.O2    1  UNL1        0.0543
     20 O         137.6302  139.1555  155.5860 O.2     1  UNL1       -0.1545
     21 O         137.0087  137.3379  153.2817 O.2     1  UNL1       -0.1545
     22 C         136.4012  139.2857  153.8620 C.3     1  UNL1        0.1490
     23 C         135.1724  140.1382  153.9767 C.3     1  UNL1        0.0273
     24 C         136.0395  140.2330  152.7565 C.3     1  UNL1        0.0273
     25 C         142.3786  134.0606  156.1118 C.3     1  UNL1        0.0021
     26 C         143.5227  133.8871  157.0663 C.3     1  UNL1        0.0001
     27 C         142.8082  132.6841  156.5254 C.3     1  UNL1        0.0001
     28 O         143.5500  138.0106  161.9996 O.3     1  UNL1       -0.4621
     29 C         143.8247  141.3096  165.0477 C.ar    1  UNL1        0.1579
     30 C         144.8823  141.1731  163.9929 C.ar    1  UNL1        0.1388
     31 N         144.7908  140.0734  162.9769 N.ar    1  UNL1       -0.2069
     32 C         143.6415  139.1103  163.0156 C.ar    1  UNL1        0.2249
     33 C         142.5838  139.2468  164.0705 C.ar    1  UNL1        0.0570
     34 C         141.4345  138.2837  164.1092 C.ar    1  UNL1        0.0161
     35 C         140.3768  138.4202  165.1640 C.ar    1  UNL1        0.0578
     36 CL        139.2275  137.4570  165.2028 Cl      1  UNL1       -0.0822
     37 C         140.4684  139.5199  166.1800 C.ar    1  UNL1        0.0115
     38 C         141.6176  140.4830  166.1412 C.ar    1  UNL1        0.0041
     39 C         142.6753  140.3465  165.0865 C.ar    1  UNL1        0.0401
     40 C         144.6032  143.6965  165.7159 C.3     1  UNL1        0.2525
     41 O         143.9162  142.4093  166.0637 O.3     1  UNL1       -0.4699
     42 C         140.3579  141.5625  158.7411 C.3     1  UNL1        0.1512
     43 C         140.7167  142.8964  158.1562 C.3     1  UNL1        0.0270
     44 C         139.9046  144.1095  158.5011 C.3     1  UNL1        0.0021
     45 C         140.2634  145.4433  157.9162 C.3     1  UNL1        0.0001
     46 C         141.4342  145.5642  156.9864 C.3     1  UNL1        0.0000
     47 C         142.2463  144.3511  156.6416 C.3     1  UNL1        0.0001
     48 C         141.8876  143.0172  157.2264 C.3     1  UNL1        0.0021
     49 N         139.5141  141.4888  159.9790 N.am    1  UNL1       -0.2640
     50 C         138.1527  140.8616  159.9224 C.2     1  UNL1        0.4021
     51 O         137.6352  140.3079  158.6279 O.2     1  UNL1       -0.2264
     52 H         139.8537  141.8522  160.8286 H       1  UNL1        0.1532
     53 O         137.3088  140.7878  161.1603 O.3     1  UNL1       -0.4295
     54 C         137.6378  141.6474  162.3447 C.3     1  UNL1        0.2645
     55 C         137.9082  143.1108  162.1573 C.3     1  UNL1        0.0567
     56 C         137.6964  141.0434  163.7165 C.3     1  UNL1        0.4342
     57 F         137.7550  140.4395  165.0883 F       1  UNL1       -0.1664
     58 F         137.3485  142.3733  164.3169 F       1  UNL1       -0.1664
     59 F         138.0442  139.7136  163.1161 F       1  UNL1       -0.1664
@<TRIPOS>BOND
     1    40    41    1
     2    41    29    1
     3    29    30   ar
     4    30    31   ar
     5    31    32   ar
     6    32    28    1
     7     1    28    1
     8     1     2    1
     9     2     3    1
    10     3     8    1
    11     8     9    2
    12     8    10   am
    13    12    10    1
    14    12    15    1
    15    15    16    2
    16    15    17   am
    17    17    19    1
    18    19    20    2
    19    19    21    2
    20    19    22    1
    21    22    23    1
    22    23    24    1
    23    12    13    1
    24    13    14    1
    25    14    25    1
    26    25    26    1
    27    26    27    1
    28     3     4    1
    29     4     5   am
    30     5     6    2
    31     5    42    1
    32    42    49    1
    33    49    50   am
    34    50    51    2
    35    50    53    1
    36    53    54    1
    37    54    55    1
    38    54    56    1
    39    56    57    1
    40    56    58    1
    41    56    59    1
    42    42    43    1
    43    43    44    1
    44    44    45    1
    45    45    46    1
    46    46    47    1
    47    47    48    1
    48     4     7    1
    49    32    33   ar
    50    33    34   ar
    51    34    35   ar
    52    35    36    1
    53    35    37   ar
    54    37    38   ar
    55    38    39   ar
    56    39    29   ar
    57     7     1    1
    58    39    33   ar
    59    14    12    1
    60    27    25    1
    61    48    43    1
    62    24    22    1
    63    10    11    1
    64    17    18    1
    65    49    52    1
@<TRIPOS>MOLECULE
*****
 59 65 0 0 0
SMALL
GASTEIGER

@<TRIPOS>ATOM
      1 C         141.2205  138.5975  160.0003 C.3     1  UNL1        0.1894
      2 C         140.1128  138.7488  159.0002 C.3     1  UNL1        0.0746
      3 C         140.5190  139.8044  158.0148 C.3     1  UNL1        0.1555
      4 N         141.8777  140.3054  158.4060 N.am    1  UNL1       -0.2678
      5 C         142.6647  141.3661  157.6949 C.2     1  UNL1        0.2440
      6 O         142.0989  142.0275  156.4732 O.2     1  UNL1       -0.2731
      7 C         142.3112  139.5595  159.6331 C.3     1  UNL1        0.1373
      8 C         139.7087  140.2760  156.8440 C.2     1  UNL1        0.2409
      9 O         138.9541  141.5697  156.9265 O.2     1  UNL1       -0.2733
     10 N         139.6530  139.4540  155.5905 N.am    1  UNL1       -0.2985
     11 H         140.1483  138.6049  155.5363 H       1  UNL1        0.1498
     12 C         138.8428  139.9257  154.4196 C.3     1  UNL1        0.1271
     13 C         138.5103  140.5262  153.0860 C.3     1  UNL1        0.0290
     14 C         139.9370  140.4606  153.5442 C.3     1  UNL1        0.0270
     15 C         137.4671  139.5546  154.8884 C.2     1  UNL1        0.2564
     16 O         137.0654  138.1115  154.9670 O.2     1  UNL1       -0.2718
     17 N         136.4931  140.6265  155.2786 N.am    1  UNL1       -0.1875
     18 H         136.7567  141.5737  155.2270 H       1  UNL1        0.1762
     19 S         135.1174  140.2554  155.7474 S.O2    1  UNL1        0.0543
     20 O         135.6008  140.2572  157.1673 O.2     1  UNL1       -0.1545
     21 O         134.6340  140.2536  154.3273 O.2     1  UNL1       -0.1545
     22 C         133.7418  139.8843  156.2161 C.3     1  UNL1        0.1490
     23 C         132.3116  140.2575  156.4713 C.3     1  UNL1        0.0273
     24 C         132.7893  138.8680  156.7730 C.3     1  UNL1        0.0273
     25 C         141.3926  140.7316  153.3034 C.3     1  UNL1        0.0021
     26 C         142.8115  140.2486  153.2453 C.3     1  UNL1        0.0001
     27 C         142.4947  141.6837  152.9444 C.3     1  UNL1        0.0001
     28 O         141.2349  137.6505  161.1634 O.3     1  UNL1       -0.4621
     29 C         139.3193  138.8403  165.0576 C.ar    1  UNL1        0.1579
     30 C         138.4749  138.3068  163.9386 C.ar    1  UNL1        0.1388
     31 N         139.1134  137.9102  162.6405 N.ar    1  UNL1       -0.2069
     32 C         140.5964  138.0471  162.4615 C.ar    1  UNL1        0.2249
     33 C         141.4409  138.5806  163.5806 C.ar    1  UNL1        0.0570
     34 C         142.9238  138.7174  163.4016 C.ar    1  UNL1        0.0161
     35 C         143.7682  139.2509  164.5206 C.ar    1  UNL1        0.0578
     36 CL        145.2513  139.3878  164.3416 Cl      1  UNL1       -0.0822
     37 C         143.1297  139.6475  165.8187 C.ar    1  UNL1        0.0115
     38 C         141.6468  139.5106  165.9977 C.ar    1  UNL1        0.0041
     39 C         140.8024  138.9772  164.8786 C.ar    1  UNL1        0.0401
     40 C         137.6582  138.3431  166.9924 C.3     1  UNL1        0.2525
     41 O         138.6808  139.2369  166.3557 O.3     1  UNL1       -0.4699
     42 C         144.0174  141.7653  158.2054 C.3     1  UNL1        0.1512
     43 C         145.1986  141.7631  157.2809 C.3     1  UNL1        0.0270
     44 C         145.2130  140.8583  156.0846 C.3     1  UNL1        0.0021
     45 C         146.3943  140.8561  155.1601 C.3     1  UNL1        0.0001
     46 C         147.5611  141.7586  155.4319 C.3     1  UNL1        0.0000
     47 C         147.5467  142.6634  156.6283 C.3     1  UNL1        0.0001
     48 C         146.3655  142.6656  157.5528 C.3     1  UNL1        0.0021
     49 N         144.1889  142.1668  159.6405 N.am    1  UNL1       -0.2640
     50 C         143.4799  143.3779  160.1703 C.2     1  UNL1        0.4021
     51 O         142.5995  144.1874  159.2650 O.2     1  UNL1       -0.2264
     52 H         144.7667  141.6355  160.2346 H       1  UNL1        0.1532
     53 O         143.6513  143.7795  161.6053 O.3     1  UNL1       -0.4295
     54 C         143.1054  142.9091  162.6982 C.3     1  UNL1        0.2645
     55 C         141.8378  142.1374  162.4797 C.3     1  UNL1        0.0567
     56 C         143.8271  142.8103  164.0094 C.3     1  UNL1        0.4342
     57 F         144.5488  142.7115  165.3206 F       1  UNL1       -0.1664
     58 F         145.1421  142.8573  163.2892 F       1  UNL1       -0.1664
     59 F         142.5121  142.7632  164.7295 F       1  UNL1       -0.1664
@<TRIPOS>BOND
     1    40    41    1
     2    41    29    1
     3    29    30   ar
     4    30    31   ar
     5    31    32   ar
     6    32    28    1
     7     1    28    1
     8     1     2    1
     9     2     3    1
    10     3     8    1
    11     8     9    2
    12     8    10   am
    13    12    10    1
    14    12    15    1
    15    15    16    2
    16    15    17   am
    17    17    19    1
    18    19    20    2
    19    19    21    2
    20    19    22    1
    21    22    23    1
    22    23    24    1
    23    12    13    1
    24    13    14    1
    25    14    25    1
    26    25    26    1
    27    26    27    1
    28     3     4    1
    29     4     5   am
    30     5     6    2
    31     5    42    1
    32    42    49    1
    33    49    50   am
    34    50    51    2
    35    50    53    1
    36    53    54    1
    37    54    55    1
    38    54    56    1
    39    56    57    1
    40    56    58    1
    41    56    59    1
    42    42    43    1
    43    43    44    1
    44    44    45    1
    45    45    46    1
    46    46    47    1
    47    47    48    1
    48     4     7    1
    49    32    33   ar
    50    33    34   ar
    51    34    35   ar
    52    35    36    1
    53    35    37   ar
    54    37    38   ar
    55    38    39   ar
    56    39    29   ar
    57     7     1    1
    58    39    33   ar
    59    14    12    1
    60    27    25    1
    61    48    43    1
    62    24    22    1
    63    10    11    1
    64    17    18    1
    65    49    52    1
@<TRIPOS>MOLECULE
*****
 59 65 0 0 0
SMALL
GASTEIGER

@<TRIPOS>ATOM
      1 C         139.1869  140.2723  161.1030 C.3     1  UNL1        0.1894
      2 C         138.2694  140.1620  159.9214 C.3     1  UNL1        0.0746
      3 C         138.7129  141.1621  158.8952 C.3     1  UNL1        0.1555
      4 N         139.9045  141.8905  159.4426 N.am    1  UNL1       -0.2678
      5 C         140.6690  142.9779  158.7475 C.2     1  UNL1        0.2440
      6 O         140.2567  143.4261  157.3767 O.2     1  UNL1       -0.2731
      7 C         140.1975  141.3406  160.8070 C.3     1  UNL1        0.1373
      8 C         138.0765  141.3932  157.5567 C.2     1  UNL1        0.2409
      9 O         137.3746  142.6882  157.2736 O.2     1  UNL1       -0.2733
     10 N         138.1422  140.3294  156.5013 N.am    1  UNL1       -0.2985
     11 H         138.6029  139.4794  156.6871 H       1  UNL1        0.1498
     12 C         137.5058  140.5605  155.1628 C.3     1  UNL1        0.1271
     13 C         137.3438  140.9867  153.7339 C.3     1  UNL1        0.0290
     14 C         138.6509  141.2026  154.4374 C.3     1  UNL1        0.0270
     15 C         136.1396  139.9986  155.4234 C.2     1  UNL1        0.2564
     16 O         135.7828  138.6311  154.9209 O.2     1  UNL1       -0.2718
     17 N         135.1303  140.8042  156.1865 N.am    1  UNL1       -0.1875
     18 H         135.3645  141.7018  156.5163 H       1  UNL1        0.1762
     19 S         133.7642  140.2423  156.4471 S.O2    1  UNL1        0.0543
     20 O         133.2555  140.9004  155.1989 O.2     1  UNL1       -0.1545
     21 O         134.2730  139.5842  157.6954 O.2     1  UNL1       -0.1545
     22 C         132.3981  139.6804  156.7076 C.3     1  UNL1        0.1490
     23 C         130.9864  139.8640  157.1801 C.3     1  UNL1        0.0273
     24 C         131.4436  138.5235  156.6864 C.3     1  UNL1        0.0273
     25 C         140.0667  141.6980  154.4248 C.3     1  UNL1        0.0021
     26 C         141.0755  142.7383  154.0374 C.3     1  UNL1        0.0001
     27 C         141.5101  141.5158  154.7903 C.3     1  UNL1        0.0001
     28 O         139.1078  139.4574  162.3598 O.3     1  UNL1       -0.4621
     29 C         142.0036  140.2165  165.7196 C.ar    1  UNL1        0.1579
     30 C         142.1268  138.9730  164.8899 C.ar    1  UNL1        0.1388
     31 N         141.1615  138.7200  163.7699 N.ar    1  UNL1       -0.2069
     32 C         140.0731  139.7105  163.4798 C.ar    1  UNL1        0.2249
     33 C         139.9499  140.9540  164.3095 C.ar    1  UNL1        0.0570
     34 C         138.8615  141.9445  164.0193 C.ar    1  UNL1        0.0161
     35 C         138.7383  143.1880  164.8491 C.ar    1  UNL1        0.0578
     36 CL        137.6499  144.1786  164.5589 Cl      1  UNL1       -0.0822
     37 C         139.7036  143.4410  165.9690 C.ar    1  UNL1        0.0115
     38 C         140.7920  142.4505  166.2592 C.ar    1  UNL1        0.0041
     39 C         140.9152  141.2070  165.4294 C.ar    1  UNL1        0.0401
     40 C         142.7101  139.8891  168.1982 C.3     1  UNL1        0.2525
     41 O         142.9689  140.4695  166.8395 O.3     1  UNL1       -0.4699
     42 C         141.8458  143.6171  159.4231 C.3     1  UNL1        0.1512
     43 C         141.6889  144.2268  160.7847 C.3     1  UNL1        0.0270
     44 C         140.5238  145.1262  161.0740 C.3     1  UNL1        0.0021
     45 C         140.3670  145.7358  162.4355 C.3     1  UNL1        0.0001
     46 C         141.3751  145.4461  163.5077 C.3     1  UNL1        0.0000
     47 C         142.5401  144.5466  163.2184 C.3     1  UNL1        0.0001
     48 C         142.6970  143.9370  161.8569 C.3     1  UNL1        0.0021
     49 N         143.1795  143.6467  158.7373 N.am    1  UNL1       -0.2640
     50 C         144.1421  142.5110  158.9201 C.2     1  UNL1        0.4021
     51 O         143.7711  141.3458  159.7888 O.2     1  UNL1       -0.2264
     52 H         143.4229  144.4115  158.1671 H       1  UNL1        0.1532
     53 O         145.4759  142.5405  158.2343 O.3     1  UNL1       -0.4295
     54 C         145.6666  141.8181  156.9336 C.3     1  UNL1        0.2645
     55 C         144.7369  140.7050  156.5506 C.3     1  UNL1        0.0567
     56 C         146.7870  142.2089  156.0159 C.3     1  UNL1        0.4342
     57 F         147.9073  142.5996  155.0983 F       1  UNL1       -0.1664
     58 F         147.4342  142.9741  157.1320 F       1  UNL1       -0.1664
     59 F         146.1397  141.4436  154.9000 F       1  UNL1       -0.1664
@<TRIPOS>BOND
     1    40    41    1
     2    41    29    1
     3    29    30   ar
     4    30    31   ar
     5    31    32   ar
     6    32    28    1
     7     1    28    1
     8     1     2    1
     9     2     3    1
    10     3     8    1
    11     8     9    2
    12     8    10   am
    13    12    10    1
    14    12    15    1
    15    15    16    2
    16    15    17   am
    17    17    19    1
    18    19    20    2
    19    19    21    2
    20    19    22    1
    21    22    23    1
    22    23    24    1
    23    12    13    1
    24    13    14    1
    25    14    25    1
    26    25    26    1
    27    26    27    1
    28     3     4    1
    29     4     5   am
    30     5     6    2
    31     5    42    1
    32    42    49    1
    33    49    50   am
    34    50    51    2
    35    50    53    1
    36    53    54    1
    37    54    55    1
    38    54    56    1
    39    56    57    1
    40    56    58    1
    41    56    59    1
    42    42    43    1
    43    43    44    1
    44    44    45    1
    45    45    46    1
    46    46    47    1
    47    47    48    1
    48     4     7    1
    49    32    33   ar
    50    33    34   ar
    51    34    35   ar
    52    35    36    1
    53    35    37   ar
    54    37    38   ar
    55    38    39   ar
    56    39    29   ar
    57     7     1    1
    58    39    33   ar
    59    14    12    1
    60    27    25    1
    61    48    43    1
    62    24    22    1
    63    10    11    1
    64    17    18    1
    65    49    52    1
@<TRIPOS>MOLECULE
*****
 59 65 0 0 0
SMALL
GASTEIGER

@<TRIPOS>ATOM
      1 C         138.4046  138.9599  161.0160 C.3     1  UNL1        0.1894
      2 C         137.5576  139.9029  160.2140 C.3     1  UNL1        0.0746
      3 C         138.1880  140.0564  158.8616 C.3     1  UNL1        0.1555
      4 N         139.4247  139.2081  158.8278 N.am    1  UNL1       -0.2678
      5 C         140.3628  139.0630  157.6664 C.2     1  UNL1        0.2440
      6 O         140.0983  139.8071  156.3911 O.2     1  UNL1       -0.2731
      7 C         139.5586  138.5305  160.1593 C.3     1  UNL1        0.1373
      8 C         137.6723  140.9084  157.7400 C.2     1  UNL1        0.2409
      9 O         137.6928  142.4031  157.8630 O.2     1  UNL1       -0.2733
     10 N         137.1360  140.2656  156.4953 N.am    1  UNL1       -0.2985
     11 H         137.1225  139.2846  156.4145 H       1  UNL1        0.1498
     12 C         136.6203  141.1177  155.3736 C.3     1  UNL1        0.1271
     13 C         135.6540  141.8124  154.4607 C.3     1  UNL1        0.0290
     14 C         135.1436  140.9607  155.5850 C.3     1  UNL1        0.0270
     15 C         137.9180  141.5706  154.7727 C.2     1  UNL1        0.2564
     16 O         138.6906  140.6500  153.8752 O.2     1  UNL1       -0.2718
     17 N         138.4430  142.9440  155.0693 N.am    1  UNL1       -0.1875
     18 H         137.9359  143.5482  155.6584 H       1  UNL1        0.1762
     19 S         139.7406  143.3969  154.4684 S.O2    1  UNL1        0.0543
     20 O         140.4696  142.9365  155.6958 O.2     1  UNL1       -0.1545
     21 O         139.0114  143.8573  153.2410 O.2     1  UNL1       -0.1545
     22 C         141.0382  143.8497  153.8675 C.3     1  UNL1        0.1490
     23 C         142.3064  143.5390  153.1293 C.3     1  UNL1        0.0273
     24 C         142.0174  144.9450  153.5649 C.3     1  UNL1        0.0273
     25 C         133.9964  140.3783  156.3562 C.3     1  UNL1        0.0021
     26 C         133.4837  139.5902  157.5249 C.3     1  UNL1        0.0001
     27 C         132.5221  140.1577  156.5232 C.3     1  UNL1        0.0001
     28 O         138.1436  138.5230  162.4270 O.3     1  UNL1       -0.4621
     29 C         141.3940  138.8506  165.5217 C.ar    1  UNL1        0.1579
     30 C         141.2327  137.5839  164.7347 C.ar    1  UNL1        0.1388
     31 N         140.1492  137.4747  163.7031 N.ar    1  UNL1       -0.2069
     32 C         139.2271  138.6322  163.4586 C.ar    1  UNL1        0.2249
     33 C         139.3884  139.8989  164.2456 C.ar    1  UNL1        0.0570
     34 C         138.4662  141.0564  164.0011 C.ar    1  UNL1        0.0161
     35 C         138.6275  142.3231  164.7882 C.ar    1  UNL1        0.0578
     36 CL        137.7053  143.4806  164.5436 Cl      1  UNL1       -0.0822
     37 C         139.7110  142.4323  165.8197 C.ar    1  UNL1        0.0115
     38 C         140.6332  141.2748  166.0643 C.ar    1  UNL1        0.0041
     39 C         140.4718  140.0081  165.2772 C.ar    1  UNL1        0.0401
     40 C         143.7159  138.1223  166.4318 C.3     1  UNL1        0.2525
     41 O         142.4775  138.9598  166.5533 O.3     1  UNL1       -0.4699
     42 C         141.5654  138.1738  157.7802 C.3     1  UNL1        0.1512
     43 C         141.8679  137.1792  156.6988 C.3     1  UNL1        0.0270
     44 C         143.2913  136.8691  156.3417 C.3     1  UNL1        0.0021
     45 C         143.5938  135.8745  155.2603 C.3     1  UNL1        0.0001
     46 C         142.4727  135.1901  154.5360 C.3     1  UNL1        0.0000
     47 C         141.0492  135.5002  154.8930 C.3     1  UNL1        0.0001
     48 C         140.7468  136.4947  155.9744 C.3     1  UNL1        0.0021
     49 N         142.4656  138.2791  158.9754 N.am    1  UNL1       -0.2640
     50 C         143.3602  139.4721  159.1377 C.2     1  UNL1        0.4021
     51 O         143.3547  140.5598  158.1047 O.2     1  UNL1       -0.2264
     52 H         142.4692  137.5652  159.6534 H       1  UNL1        0.1532
     53 O         144.2605  139.5776  160.3329 O.3     1  UNL1       -0.4295
     54 C         143.6990  139.9921  161.6606 C.3     1  UNL1        0.2645
     55 C         142.2802  140.4689  161.7590 C.3     1  UNL1        0.0567
     56 C         144.5563  139.9298  162.8899 C.3     1  UNL1        0.4342
     57 F         145.4135  139.8675  164.1191 F       1  UNL1       -0.1664
     58 F         143.9259  138.6209  163.2632 F       1  UNL1       -0.1664
     59 F         145.1866  141.2388  162.5165 F       1  UNL1       -0.1664
@<TRIPOS>BOND
     1    40    41    1
     2    41    29    1
     3    29    30   ar
     4    30    31   ar
     5    31    32   ar
     6    32    28    1
     7     1    28    1
     8     1     2    1
     9     2     3    1
    10     3     8    1
    11     8     9    2
    12     8    10   am
    13    12    10    1
    14    12    15    1
    15    15    16    2
    16    15    17   am
    17    17    19    1
    18    19    20    2
    19    19    21    2
    20    19    22    1
    21    22    23    1
    22    23    24    1
    23    12    13    1
    24    13    14    1
    25    14    25    1
    26    25    26    1
    27    26    27    1
    28     3     4    1
    29     4     5   am
    30     5     6    2
    31     5    42    1
    32    42    49    1
    33    49    50   am
    34    50    51    2
    35    50    53    1
    36    53    54    1
    37    54    55    1
    38    54    56    1
    39    56    57    1
    40    56    58    1
    41    56    59    1
    42    42    43    1
    43    43    44    1
    44    44    45    1
    45    45    46    1
    46    46    47    1
    47    47    48    1
    48     4     7    1
    49    32    33   ar
    50    33    34   ar
    51    34    35   ar
    52    35    36    1
    53    35    37   ar
    54    37    38   ar
    55    38    39   ar
    56    39    29   ar
    57     7     1    1
    58    39    33   ar
    59    14    12    1
    60    27    25    1
    61    48    43    1
    62    24    22    1
    63    10    11    1
    64    17    18    1
    65    49    52    1
@<TRIPOS>MOLECULE
*****
 59 65 0 0 0
SMALL
GASTEIGER

@<TRIPOS>ATOM
      1 C         139.3764  140.2557  159.2080 C.3     1  UNL1        0.1894
      2 C         140.3589  139.3772  158.4918 C.3     1  UNL1        0.0746
      3 C         141.3663  140.2613  157.8185 C.3     1  UNL1        0.1555
      4 N         141.0065  141.6862  158.1186 N.am    1  UNL1       -0.2678
      5 C         141.7466  142.9013  157.6434 C.2     1  UNL1        0.2440
      6 O         142.9675  142.7481  156.7855 O.2     1  UNL1       -0.2731
      7 C         139.7767  141.6828  158.9774 C.3     1  UNL1        0.1373
      8 C         142.5294  139.8012  156.9905 C.2     1  UNL1        0.2409
      9 O         143.8308  139.4561  157.6515 O.2     1  UNL1       -0.2733
     10 N         142.3910  139.6863  155.5013 N.am    1  UNL1       -0.2985
     11 H         141.5368  139.9128  155.0673 H       1  UNL1        0.1498
     12 C         143.5541  139.2263  154.6732 C.3     1  UNL1        0.1271
     13 C         144.6962  139.2665  153.7018 C.3     1  UNL1        0.0290
     14 C         143.8978  140.5072  153.9726 C.3     1  UNL1        0.0270
     15 C         143.6142  137.7855  155.0864 C.2     1  UNL1        0.2564
     16 O         144.9012  137.2031  155.5908 O.2     1  UNL1       -0.2718
     17 N         142.3875  136.9272  154.9950 N.am    1  UNL1       -0.1875
     18 H         141.5428  137.3094  154.6639 H       1  UNL1        0.1762
     19 S         142.4477  135.4865  155.4081 S.O2    1  UNL1        0.0543
     20 O         142.6909  135.0879  153.9827 O.2     1  UNL1       -0.1545
     21 O         142.2044  135.8851  156.8336 O.2     1  UNL1       -0.1545
     22 C         142.5079  134.0458  155.8212 C.3     1  UNL1        0.1490
     23 C         141.9817  132.6443  155.7270 C.3     1  UNL1        0.0273
     24 C         143.1384  132.9519  156.6311 C.3     1  UNL1        0.0273
     25 C         143.6353  141.9631  153.7244 C.3     1  UNL1        0.0021
     26 C         144.1354  143.3730  153.6150 C.3     1  UNL1        0.0001
     27 C         142.6805  143.0747  153.4040 C.3     1  UNL1        0.0001
     28 O         138.2002  139.7891  160.0135 O.3     1  UNL1       -0.4621
     29 C         138.7611  138.5434  164.3011 C.ar    1  UNL1        0.1579
     30 C         138.9004  137.5322  163.2019 C.ar    1  UNL1        0.1388
     31 N         138.7134  137.9475  161.7727 N.ar    1  UNL1       -0.2069
     32 C         138.3872  139.3738  161.4427 C.ar    1  UNL1        0.2249
     33 C         138.2478  140.3851  162.5418 C.ar    1  UNL1        0.0570
     34 C         137.9216  141.8114  162.2118 C.ar    1  UNL1        0.0161
     35 C         137.7823  142.8226  163.3109 C.ar    1  UNL1        0.0578
     36 CL        137.4560  144.2490  162.9809 Cl      1  UNL1       -0.0822
     37 C         137.9693  142.4073  164.7401 C.ar    1  UNL1        0.0115
     38 C         138.2955  140.9810  165.0702 C.ar    1  UNL1        0.0041
     39 C         138.4348  139.9698  163.9710 C.ar    1  UNL1        0.0401
     40 C         137.7751  137.6441  166.5302 C.3     1  UNL1        0.2525
     41 O         138.9480  138.1281  165.7303 O.3     1  UNL1       -0.4699
     42 C         141.2658  144.2697  158.0261 C.3     1  UNL1        0.1512
     43 C         140.3437  145.0230  157.1138 C.3     1  UNL1        0.0270
     44 C         140.1524  146.4998  157.2935 C.3     1  UNL1        0.0021
     45 C         139.2303  147.2531  156.3812 C.3     1  UNL1        0.0001
     46 C         138.4994  146.5296  155.2893 C.3     1  UNL1        0.0000
     47 C         138.6907  145.0527  155.1096 C.3     1  UNL1        0.0001
     48 C         139.6128  144.2994  156.0219 C.3     1  UNL1        0.0021
     49 N         141.7072  144.8847  159.3210 N.am    1  UNL1       -0.2640
     50 C         140.7512  144.9735  160.4734 C.2     1  UNL1        0.4021
     51 O         139.3538  144.4473  160.3309 O.2     1  UNL1       -0.2264
     52 H         142.6244  145.2301  159.4146 H       1  UNL1        0.1532
     53 O         141.1925  145.5886  161.7685 O.3     1  UNL1       -0.4295
     54 C         141.9622  144.7713  162.7632 C.3     1  UNL1        0.2645
     55 C         143.3906  144.4052  162.4880 C.3     1  UNL1        0.0567
     56 C         141.3036  144.3200  164.0330 C.3     1  UNL1        0.4342
     57 F         140.6450  143.8687  165.3029 F       1  UNL1       -0.1664
     58 F         142.3394  143.2463  164.1887 F       1  UNL1       -0.1664
     59 F         140.2678  145.3937  163.8773 F       1  UNL1       -0.1664
@<TRIPOS>BOND
     1    40    41    1
     2    41    29    1
     3    29    30   ar
     4    30    31   ar
     5    31    32   ar
     6    32    28    1
     7     1    28    1
     8     1     2    1
     9     2     3    1
    10     3     8    1
    11     8     9    2
    12     8    10   am
    13    12    10    1
    14    12    15    1
    15    15    16    2
    16    15    17   am
    17    17    19    1
    18    19    20    2
    19    19    21    2
    20    19    22    1
    21    22    23    1
    22    23    24    1
    23    12    13    1
    24    13    14    1
    25    14    25    1
    26    25    26    1
    27    26    27    1
    28     3     4    1
    29     4     5   am
    30     5     6    2
    31     5    42    1
    32    42    49    1
    33    49    50   am
    34    50    51    2
    35    50    53    1
    36    53    54    1
    37    54    55    1
    38    54    56    1
    39    56    57    1
    40    56    58    1
    41    56    59    1
    42    42    43    1
    43    43    44    1
    44    44    45    1
    45    45    46    1
    46    46    47    1
    47    47    48    1
    48     4     7    1
    49    32    33   ar
    50    33    34   ar
    51    34    35   ar
    52    35    36    1
    53    35    37   ar
    54    37    38   ar
    55    38    39   ar
    56    39    29   ar
    57     7     1    1
    58    39    33   ar
    59    14    12    1
    60    27    25    1
    61    48    43    1
    62    24    22    1
    63    10    11    1
    64    17    18    1
    65    49    52    1
@<TRIPOS>MOLECULE
*****
 59 65 0 0 0
SMALL
GASTEIGER

@<TRIPOS>ATOM
      1 C         138.4623  140.3267  160.7374 C.3     1  UNL1        0.1894
      2 C         137.4693  140.1772  159.6231 C.3     1  UNL1        0.0746
      3 C         138.1214  140.6437  158.3554 C.3     1  UNL1        0.1555
      4 N         139.5175  141.0815  158.6862 N.am    1  UNL1       -0.2678
      5 C         140.5259  141.6206  157.7154 C.2     1  UNL1        0.2440
      6 O         140.1701  141.7607  156.2649 O.2     1  UNL1       -0.2731
      7 C         139.7281  140.8856  160.1584 C.3     1  UNL1        0.1373
      8 C         137.4887  140.6681  156.9956 C.2     1  UNL1        0.2409
      9 O         137.8061  139.5910  156.0012 O.2     1  UNL1       -0.2733
     10 N         136.5384  141.7697  156.6302 N.am    1  UNL1       -0.2985
     11 H         136.3300  142.4767  157.2829 H       1  UNL1        0.1498
     12 C         135.9056  141.7941  155.2705 C.3     1  UNL1        0.1271
     13 C         135.6549  142.1651  153.8389 C.3     1  UNL1        0.0290
     14 C         136.7861  142.8008  154.5914 C.3     1  UNL1        0.0270
     15 C         134.8053  140.7957  155.4772 C.2     1  UNL1        0.2564
     16 O         134.7306  139.5722  154.6127 O.2     1  UNL1       -0.2718
     17 N         133.7797  141.0209  156.5484 N.am    1  UNL1       -0.1875
     18 H         133.8288  141.8240  157.1158 H       1  UNL1        0.1762
     19 S         132.6795  140.0226  156.7552 S.O2    1  UNL1        0.0543
     20 O         133.5861  139.2037  157.6254 O.2     1  UNL1       -0.1545
     21 O         131.7729  140.8416  155.8849 O.2     1  UNL1       -0.1545
     22 C         131.5793  139.0243  156.9619 C.3     1  UNL1        0.1490
     23 C         130.5732  138.3672  157.8596 C.3     1  UNL1        0.0273
     24 C         130.6797  137.9521  156.4222 C.3     1  UNL1        0.0273
     25 C         137.9476  143.7492  154.6340 C.3     1  UNL1        0.0021
     26 C         139.2077  144.2878  154.0242 C.3     1  UNL1        0.0001
     27 C         138.6991  144.8529  155.3173 C.3     1  UNL1        0.0001
     28 O         138.2301  139.9785  162.1778 O.3     1  UNL1       -0.4621
     29 C         141.7074  139.7443  165.0246 C.ar    1  UNL1        0.1579
     30 C         141.4598  138.6314  164.0498 C.ar    1  UNL1        0.1388
     31 N         140.3007  138.7095  163.1009 N.ar    1  UNL1       -0.2069
     32 C         139.3892  139.9004  163.1267 C.ar    1  UNL1        0.2249
     33 C         139.6367  141.0134  164.1016 C.ar    1  UNL1        0.0570
     34 C         138.7252  142.2043  164.1274 C.ar    1  UNL1        0.0161
     35 C         138.9728  143.3172  165.1022 C.ar    1  UNL1        0.0578
     36 CL        138.0612  144.5082  165.1280 Cl      1  UNL1       -0.0822
     37 C         140.1318  143.2391  166.0511 C.ar    1  UNL1        0.0115
     38 C         141.0433  142.0482  166.0252 C.ar    1  UNL1        0.0041
     39 C         140.7958  140.9353  165.0505 C.ar    1  UNL1        0.0401
     40 C         143.5526  138.3540  166.2130 C.3     1  UNL1        0.2525
     41 O         142.8664  139.6662  165.9735 O.3     1  UNL1       -0.4699
     42 C         141.8900  142.0196  158.1949 C.3     1  UNL1        0.1512
     43 C         143.1102  141.5555  157.4562 C.3     1  UNL1        0.0270
     44 C         143.1325  140.1950  156.8250 C.3     1  UNL1        0.0021
     45 C         144.3527  139.7308  156.0862 C.3     1  UNL1        0.0001
     46 C         145.5506  140.6272  155.9787 C.3     1  UNL1        0.0000
     47 C         145.5282  141.9877  156.6099 C.3     1  UNL1        0.0001
     48 C         144.3080  142.4519  157.3487 C.3     1  UNL1        0.0021
     49 N         142.0338  142.8828  159.4132 N.am    1  UNL1       -0.2640
     50 C         141.7477  144.3528  159.3289 C.2     1  UNL1        0.4021
     51 O         141.3178  144.9597  158.0262 O.2     1  UNL1       -0.2264
     52 H         142.3160  142.4844  160.2682 H       1  UNL1        0.1532
     53 O         141.8916  145.2161  160.5471 O.3     1  UNL1       -0.4295
     54 C         141.1612  144.8613  161.8083 C.3     1  UNL1        0.2645
     55 C         139.6615  144.8766  161.8361 C.3     1  UNL1        0.0567
     56 C         141.9305  144.4913  163.0417 C.3     1  UNL1        0.4342
     57 F         142.6997  144.1212  164.2751 F       1  UNL1       -0.1664
     58 F         141.9452  145.9304  163.4643 F       1  UNL1       -0.1664
     59 F         141.9157  143.0521  162.6191 F       1  UNL1       -0.1664
@<TRIPOS>BOND
     1    40    41    1
     2    41    29    1
     3    29    30   ar
     4    30    31   ar
     5    31    32   ar
     6    32    28    1
     7     1    28    1
     8     1     2    1
     9     2     3    1
    10     3     8    1
    11     8     9    2
    12     8    10   am
    13    12    10    1
    14    12    15    1
    15    15    16    2
    16    15    17   am
    17    17    19    1
    18    19    20    2
    19    19    21    2
    20    19    22    1
    21    22    23    1
    22    23    24    1
    23    12    13    1
    24    13    14    1
    25    14    25    1
    26    25    26    1
    27    26    27    1
    28     3     4    1
    29     4     5   am
    30     5     6    2
    31     5    42    1
    32    42    49    1
    33    49    50   am
    34    50    51    2
    35    50    53    1
    36    53    54    1
    37    54    55    1
    38    54    56    1
    39    56    57    1
    40    56    58    1
    41    56    59    1
    42    42    43    1
    43    43    44    1
    44    44    45    1
    45    45    46    1
    46    46    47    1
    47    47    48    1
    48     4     7    1
    49    32    33   ar
    50    33    34   ar
    51    34    35   ar
    52    35    36    1
    53    35    37   ar
    54    37    38   ar
    55    38    39   ar
    56    39    29   ar
    57     7     1    1
    58    39    33   ar
    59    14    12    1
    60    27    25    1
    61    48    43    1
    62    24    22    1
    63    10    11    1
    64    17    18    1
    65    49    52    1
@<TRIPOS>MOLECULE
*****
 59 65 0 0 0
SMALL
GASTEIGER

@<TRIPOS>ATOM
      1 C         141.1022  138.7181  160.7472 C.3     1  UNL1        0.1894
      2 C         141.4341  137.7841  159.6214 C.3     1  UNL1        0.0746
      3 C         141.1351  138.4884  158.3313 C.3     1  UNL1        0.1555
      4 N         140.6184  139.8578  158.6597 N.am    1  UNL1       -0.2678
      5 C         140.1962  140.9019  157.6690 C.2     1  UNL1        0.2440
      6 O         140.2725  140.6151  156.1987 O.2     1  UNL1       -0.2731
      7 C         140.5981  139.9997  160.1529 C.3     1  UNL1        0.1373
      8 C         141.3202  137.9227  156.9544 C.2     1  UNL1        0.2409
      9 O         142.4161  138.4417  156.0715 O.2     1  UNL1       -0.2733
     10 N         140.4095  136.8380  156.4605 N.am    1  UNL1       -0.2985
     11 H         139.6903  136.4973  157.0400 H       1  UNL1        0.1498
     12 C         140.5947  136.2723  155.0837 C.3     1  UNL1        0.1271
     13 C         140.3630  136.0081  153.6255 C.3     1  UNL1        0.0290
     14 C         139.4585  136.9441  154.3711 C.3     1  UNL1        0.0270
     15 C         141.7952  135.4040  155.3181 C.2     1  UNL1        0.2564
     16 O         143.0359  135.6026  154.4989 O.2     1  UNL1       -0.2718
     17 N         141.7549  134.3371  156.3717 N.am    1  UNL1       -0.1875
     18 H         140.9406  134.2067  156.9094 H       1  UNL1        0.1762
     19 S         142.9554  133.4688  156.6061 S.O2    1  UNL1        0.0543
     20 O         143.5339  134.5137  157.5135 O.2     1  UNL1       -0.1545
     21 O         142.3768  132.4239  155.6986 O.2     1  UNL1       -0.1545
     22 C         144.1558  132.6006  156.8405 C.3     1  UNL1        0.1490
     23 C         145.1588  131.6066  156.3347 C.3     1  UNL1        0.0273
     24 C         145.2322  132.0907  157.7525 C.3     1  UNL1        0.0273
     25 C         138.2804  137.8724  154.3902 C.3     1  UNL1        0.0021
     26 C         136.8026  138.0984  154.2679 C.3     1  UNL1        0.0001
     27 C         137.7176  139.2541  154.5458 C.3     1  UNL1        0.0001
     28 O         141.2487  138.4224  162.2104 O.3     1  UNL1       -0.4621
     29 C         142.8734  141.5667  164.9896 C.ar    1  UNL1        0.1579
     30 C         143.5556  141.2973  163.6812 C.ar    1  UNL1        0.1388
     31 N         143.0140  140.2493  162.7548 N.ar    1  UNL1       -0.2069
     32 C         141.7903  139.4705  163.1368 C.ar    1  UNL1        0.2249
     33 C         141.1080  139.7399  164.4453 C.ar    1  UNL1        0.0570
     34 C         139.8843  138.9611  164.8274 C.ar    1  UNL1        0.0161
     35 C         139.2021  139.2305  166.1358 C.ar    1  UNL1        0.0578
     36 CL        137.9783  138.4518  166.5179 Cl      1  UNL1       -0.0822
     37 C         139.7437  140.2786  167.0622 C.ar    1  UNL1        0.0115
     38 C         140.9674  141.0573  166.6802 C.ar    1  UNL1        0.0041
     39 C         141.6496  140.7880  165.3717 C.ar    1  UNL1        0.0401
     40 C         144.4973  143.5421  165.4486 C.3     1  UNL1        0.2525
     41 O         143.4150  142.6148  165.9160 O.3     1  UNL1       -0.4699
     42 C         139.6977  142.2329  158.1486 C.3     1  UNL1        0.1512
     43 C         140.3703  143.4940  157.6936 C.3     1  UNL1        0.0270
     44 C         139.5907  144.5295  156.9386 C.3     1  UNL1        0.0021
     45 C         140.2633  145.7907  156.4836 C.3     1  UNL1        0.0001
     46 C         141.7156  146.0164  156.7836 C.3     1  UNL1        0.0000
     47 C         142.4952  144.9809  157.5385 C.3     1  UNL1        0.0001
     48 C         141.8226  143.7197  157.9935 C.3     1  UNL1        0.0021
     49 N         138.5265  142.3026  159.0832 N.am    1  UNL1       -0.2640
     50 C         138.6938  142.8915  160.4525 C.2     1  UNL1        0.4021
     51 O         140.0323  143.4106  160.8873 O.2     1  UNL1       -0.2264
     52 H         137.6480  141.9619  158.7978 H       1  UNL1        0.1532
     53 O         137.5227  142.9614  161.3873 O.3     1  UNL1       -0.4295
     54 C         137.6369  142.4053  162.7757 C.3     1  UNL1        0.2645
     55 C         137.6030  140.9217  162.9945 C.3     1  UNL1        0.0567
     56 C         137.7852  143.3327  163.9452 C.3     1  UNL1        0.4342
     57 F         137.9334  144.2601  165.1147 F       1  UNL1       -0.1664
     58 F         137.4280  144.4959  163.0681 F       1  UNL1       -0.1664
     59 F         138.1423  142.1695  164.8223 F       1  UNL1       -0.1664
@<TRIPOS>BOND
     1    40    41    1
     2    41    29    1
     3    29    30   ar
     4    30    31   ar
     5    31    32   ar
     6    32    28    1
     7     1    28    1
     8     1     2    1
     9     2     3    1
    10     3     8    1
    11     8     9    2
    12     8    10   am
    13    12    10    1
    14    12    15    1
    15    15    16    2
    16    15    17   am
    17    17    19    1
    18    19    20    2
    19    19    21    2
    20    19    22    1
    21    22    23    1
    22    23    24    1
    23    12    13    1
    24    13    14    1
    25    14    25    1
    26    25    26    1
    27    26    27    1
    28     3     4    1
    29     4     5   am
    30     5     6    2
    31     5    42    1
    32    42    49    1
    33    49    50   am
    34    50    51    2
    35    50    53    1
    36    53    54    1
    37    54    55    1
    38    54    56    1
    39    56    57    1
    40    56    58    1
    41    56    59    1
    42    42    43    1
    43    43    44    1
    44    44    45    1
    45    45    46    1
    46    46    47    1
    47    47    48    1
    48     4     7    1
    49    32    33   ar
    50    33    34   ar
    51    34    35   ar
    52    35    36    1
    53    35    37   ar
    54    37    38   ar
    55    38    39   ar
    56    39    29   ar
    57     7     1    1
    58    39    33   ar
    59    14    12    1
    60    27    25    1
    61    48    43    1
    62    24    22    1
    63    10    11    1
    64    17    18    1
    65    49    52    1
@<TRIPOS>MOLECULE
*****
 59 65 0 0 0
SMALL
GASTEIGER

@<TRIPOS>ATOM
      1 C         139.6470  143.3491  159.4614 C.3     1  UNL1        0.1894
      2 C         139.6138  143.9574  158.0907 C.3     1  UNL1        0.0746
      3 C         140.7564  143.3881  157.3031 C.3     1  UNL1        0.1555
      4 N         141.4958  142.4279  158.1871 N.am    1  UNL1       -0.2678
      5 C         142.7081  141.6317  157.8044 C.2     1  UNL1        0.2440
      6 O         143.2855  141.7603  156.4259 O.2     1  UNL1       -0.2731
      7 C         140.8101  142.4038  159.5210 C.3     1  UNL1        0.1373
      8 C         141.0995  143.7206  155.8812 C.2     1  UNL1        0.2409
      9 O         140.3404  143.0803  154.7571 O.2     1  UNL1       -0.2733
     10 N         142.2017  144.6935  155.5834 N.am    1  UNL1       -0.2985
     11 H         142.6999  145.1138  156.3212 H       1  UNL1        0.1498
     12 C         142.5447  145.0260  154.1615 C.3     1  UNL1        0.1271
     13 C         142.4957  145.6922  152.8185 C.3     1  UNL1        0.0290
     14 C         141.5349  146.1025  153.8948 C.3     1  UNL1        0.0270
     15 C         143.6738  144.0648  153.9344 C.2     1  UNL1        0.2564
     16 O         143.3971  142.7027  153.3704 O.2     1  UNL1       -0.2718
     17 N         145.0794  144.4659  154.2711 N.am    1  UNL1       -0.1875
     18 H         145.2609  145.3599  154.6413 H       1  UNL1        0.1762
     19 S         146.2084  143.5048  154.0440 S.O2    1  UNL1        0.0543
     20 O         146.0023  142.9381  155.4174 O.2     1  UNL1       -0.1545
     21 O         146.4145  144.0715  152.6705 O.2     1  UNL1       -0.1545
     22 C         147.3373  142.5437  153.8169 C.3     1  UNL1        0.1490
     23 C         147.9347  141.3981  153.0548 C.3     1  UNL1        0.0273
     24 C         148.6955  142.0246  154.1856 C.3     1  UNL1        0.0273
     25 C         140.3970  146.9610  154.3623 C.3     1  UNL1        0.0021
     26 C         139.6296  148.2482  154.2987 C.3     1  UNL1        0.0001
     27 C         139.1939  147.1607  155.2356 C.3     1  UNL1        0.0001
     28 O         138.6858  143.6357  160.5767 O.3     1  UNL1       -0.4621
     29 C         138.5067  140.9062  164.1498 C.ar    1  UNL1        0.1579
     30 C         137.5421  140.7217  163.0161 C.ar    1  UNL1        0.1388
     31 N         137.6018  141.6316  161.8250 N.ar    1  UNL1       -0.2069
     32 C         138.6261  142.7258  161.7677 C.ar    1  UNL1        0.2249
     33 C         139.5908  142.9103  162.9016 C.ar    1  UNL1        0.0570
     34 C         140.6150  144.0046  162.8443 C.ar    1  UNL1        0.0161
     35 C         141.5796  144.1891  163.9781 C.ar    1  UNL1        0.0578
     36 CL        142.6040  145.2834  163.9209 Cl      1  UNL1       -0.0822
     37 C         141.5199  143.2792  165.1691 C.ar    1  UNL1        0.0115
     38 C         140.4956  142.1849  165.2264 C.ar    1  UNL1        0.0041
     39 C         139.5311  142.0005  164.0926 C.ar    1  UNL1        0.0401
     40 C         138.6432  138.5194  165.1671 C.3     1  UNL1        0.2525
     41 O         138.4470  139.9963  165.3409 O.3     1  UNL1       -0.4699
     42 C         143.3429  140.7067  158.8001 C.3     1  UNL1        0.1512
     43 C         143.6940  141.2063  160.1702 C.3     1  UNL1        0.0270
     44 C         144.4096  142.5148  160.3308 C.3     1  UNL1        0.0021
     45 C         144.7608  143.0144  161.7008 C.3     1  UNL1        0.0001
     46 C         144.3963  142.2055  162.9103 C.3     1  UNL1        0.0000
     47 C         143.6807  140.8971  162.7497 C.3     1  UNL1        0.0001
     48 C         143.3296  140.3975  161.3796 C.3     1  UNL1        0.0021
     49 N         143.6266  139.2822  158.4257 N.am    1  UNL1       -0.2640
     50 C         142.5370  138.2545  158.5056 C.2     1  UNL1        0.4021
     51 O         141.1636  138.6513  158.9599 O.2     1  UNL1       -0.2264
     52 H         144.5280  139.0218  158.1275 H       1  UNL1        0.1532
     53 O         142.8206  136.8299  158.1312 O.3     1  UNL1       -0.4295
     54 C         142.6541  136.3805  156.7098 C.3     1  UNL1        0.2645
     55 C         141.6989  137.0986  155.8032 C.3     1  UNL1        0.0567
     56 C         143.4427  135.2129  156.1951 C.3     1  UNL1        0.4342
     57 F         144.2313  134.0455  155.6804 F       1  UNL1       -0.1664
     58 F         144.5129  136.1477  155.7145 F       1  UNL1       -0.1664
     59 F         142.3724  134.2783  156.6757 F       1  UNL1       -0.1664
@<TRIPOS>BOND
     1    40    41    1
     2    41    29    1
     3    29    30   ar
     4    30    31   ar
     5    31    32   ar
     6    32    28    1
     7     1    28    1
     8     1     2    1
     9     2     3    1
    10     3     8    1
    11     8     9    2
    12     8    10   am
    13    12    10    1
    14    12    15    1
    15    15    16    2
    16    15    17   am
    17    17    19    1
    18    19    20    2
    19    19    21    2
    20    19    22    1
    21    22    23    1
    22    23    24    1
    23    12    13    1
    24    13    14    1
    25    14    25    1
    26    25    26    1
    27    26    27    1
    28     3     4    1
    29     4     5   am
    30     5     6    2
    31     5    42    1
    32    42    49    1
    33    49    50   am
    34    50    51    2
    35    50    53    1
    36    53    54    1
    37    54    55    1
    38    54    56    1
    39    56    57    1
    40    56    58    1
    41    56    59    1
    42    42    43    1
    43    43    44    1
    44    44    45    1
    45    45    46    1
    46    46    47    1
    47    47    48    1
    48     4     7    1
    49    32    33   ar
    50    33    34   ar
    51    34    35   ar
    52    35    36    1
    53    35    37   ar
    54    37    38   ar
    55    38    39   ar
    56    39    29   ar
    57     7     1    1
    58    39    33   ar
    59    14    12    1
    60    27    25    1
    61    48    43    1
    62    24    22    1
    63    10    11    1
    64    17    18    1
    65    49    52    1
