@<TRIPOS>MOLECULE
*****
 28 30 0 0 0
SMALL
GASTEIGER

@<TRIPOS>ATOM
      1 N         140.7867  144.3322  161.3728 N.3     1  UNL1       -0.1466
      2 C         139.6747  144.9995  162.1265 C.3     1  UNL1        0.1222
      3 C         139.7216  144.5166  163.5459 C.ar    1  UNL1       -0.0071
      4 C         138.8727  144.8315  164.7418 C.ar    1  UNL1       -0.0031
      5 C         139.1649  144.1807  166.0612 C.ar    1  UNL1       -0.0003
      6 C         140.3060  143.2149  166.1848 C.ar    1  UNL1       -0.0001
      7 C         141.1549  142.9000  164.9889 C.ar    1  UNL1       -0.0031
      8 C         140.8627  143.5509  163.6694 C.ar    1  UNL1       -0.0071
      9 C         141.5209  143.4369  162.3264 C.3     1  UNL1        0.1222
     10 S         141.1082  144.5262  159.9206 S.O2    1  UNL1        0.0640
     11 O         142.5684  144.3619  160.2218 O.2     1  UNL1       -0.1528
     12 O         139.6479  144.6905  159.6193 O.2     1  UNL1       -0.1528
     13 C         141.0649  145.9946  156.2338 C.ar    1  UNL1        0.1401
     14 C         142.0724  145.1081  155.5638 C.ar    1  UNL1        0.0370
     15 C         142.7585  144.0277  156.3460 C.ar    1  UNL1        0.0045
     16 C         142.4371  143.8337  157.7982 C.ar    1  UNL1        0.0201
     17 C         141.4296  144.7202  158.4683 C.ar    1  UNL1        0.1252
     18 C         140.7435  145.8006  157.6861 C.ar    1  UNL1        0.0568
     19 C         139.0273  147.5668  155.8781 C.3     1  UNL1        0.2525
     20 O         140.3787  147.0751  155.4516 O.3     1  UNL1       -0.4714
     21 C         140.5981  142.5640  167.5043 C.2     1  UNL1        0.0047
     22 C         140.2718  143.2791  168.7818 C.2     1  UNL1        0.0598
     23 C         140.5640  142.6282  170.1014 C.2     1  UNL1        0.2679
     24 O         139.5505  141.7180  170.7294 O.2     1  UNL1       -0.2681
     25 N         141.8696  142.8875  170.7928 N.am    1  UNL1       -0.1934
     26 O         142.1617  142.2366  172.1122 O.3     1  UNL1       -0.2949
     27 H         142.5348  143.4849  170.3806 H       1  UNL1        0.1825
     28 H         141.4083  141.6847  172.3743 H       1  UNL1        0.2414
@<TRIPOS>BOND
     1    19    20    1
     2    20    13    1
     3    13    14   ar
     4    14    15   ar
     5    15    16   ar
     6    16    17   ar
     7    17    10    1
     8    10    11    2
     9    10    12    2
    10    10     1    1
    11     1     2    1
    12     2     3    1
    13     3     4   ar
    14     4     5   ar
    15     5     6   ar
    16     6    21    1
    17    21    22    2
    18    22    23    1
    19    23    24    2
    20    23    25   am
    21    25    26    1
    22     6     7   ar
    23     7     8   ar
    24     8     9    1
    25    17    18   ar
    26    18    13   ar
    27     9     1    1
    28     8     3   ar
    29    25    27    1
    30    26    28    1
@<TRIPOS>MOLECULE
*****
 28 30 0 0 0
SMALL
GASTEIGER

@<TRIPOS>ATOM
      1 N         138.3615  140.4722  161.1155 N.3     1  UNL1       -0.1466
      2 C         138.6778  139.0365  161.4131 C.3     1  UNL1        0.1222
      3 C         138.6632  138.8576  162.9024 C.ar    1  UNL1       -0.0071
      4 C         138.9042  137.6593  163.7718 C.ar    1  UNL1       -0.0031
      5 C         138.8198  137.7862  165.2640 C.ar    1  UNL1       -0.0003
      6 C         138.4944  139.1114  165.8868 C.ar    1  UNL1       -0.0001
      7 C         138.2535  140.3098  165.0174 C.ar    1  UNL1       -0.0031
      8 C         138.3379  140.1829  163.5252 C.ar    1  UNL1       -0.0071
      9 C         138.1514  141.1807  162.4208 C.3     1  UNL1        0.1222
     10 S         138.2712  141.0908  159.7520 S.O2    1  UNL1        0.0640
     11 O         138.1605  139.7258  159.1400 O.2     1  UNL1       -0.1528
     12 O         138.3818  142.4558  160.3640 O.2     1  UNL1       -0.1528
     13 C         138.8908  143.5553  156.7037 C.ar    1  UNL1        0.1401
     14 C         138.0001  142.9467  155.6615 C.ar    1  UNL1        0.0370
     15 C         137.1997  141.7194  155.9828 C.ar    1  UNL1        0.0045
     16 C         137.2901  141.1008  157.3463 C.ar    1  UNL1        0.0201
     17 C         138.1808  141.7094  158.3885 C.ar    1  UNL1        0.1252
     18 C         138.9811  142.9367  158.0672 C.ar    1  UNL1        0.0568
     19 C         140.1742  145.6737  157.4881 C.3     1  UNL1        0.2525
     20 O         139.6912  144.7826  156.3824 O.3     1  UNL1       -0.4714
     21 C         138.4100  139.2383  167.3791 C.2     1  UNL1        0.0047
     22 C         139.4664  139.9948  168.1284 C.2     1  UNL1        0.0598
     23 C         139.3820  140.1217  169.6207 C.2     1  UNL1        0.2679
     24 O         138.0605  139.9656  170.3131 O.2     1  UNL1       -0.2681
     25 N         140.6190  140.4046  170.4205 N.am    1  UNL1       -0.1934
     26 O         140.5345  140.5314  171.9127 O.3     1  UNL1       -0.2949
     27 H         141.4863  140.5070  169.9661 H       1  UNL1        0.1825
     28 H         139.6157  140.4043  172.1965 H       1  UNL1        0.2414
@<TRIPOS>BOND
     1    19    20    1
     2    20    13    1
     3    13    14   ar
     4    14    15   ar
     5    15    16   ar
     6    16    17   ar
     7    17    10    1
     8    10    11    2
     9    10    12    2
    10    10     1    1
    11     1     2    1
    12     2     3    1
    13     3     4   ar
    14     4     5   ar
    15     5     6   ar
    16     6    21    1
    17    21    22    2
    18    22    23    1
    19    23    24    2
    20    23    25   am
    21    25    26    1
    22     6     7   ar
    23     7     8   ar
    24     8     9    1
    25    17    18   ar
    26    18    13   ar
    27     9     1    1
    28     8     3   ar
    29    25    27    1
    30    26    28    1
@<TRIPOS>MOLECULE
*****
 28 30 0 0 0
SMALL
GASTEIGER

@<TRIPOS>ATOM
      1 N         141.8160  143.6115  162.1980 N.3     1  UNL1       -0.1466
      2 C         143.0596  143.6404  163.0363 C.3     1  UNL1        0.1222
      3 C         142.7239  143.0724  164.3834 C.ar    1  UNL1       -0.0071
      4 C         143.5521  142.8521  165.6145 C.ar    1  UNL1       -0.0031
      5 C         142.9291  142.2518  166.8398 C.ar    1  UNL1       -0.0003
      6 C         141.4781  141.8718  166.8341 C.ar    1  UNL1       -0.0001
      7 C         140.6499  142.0921  165.6031 C.ar    1  UNL1       -0.0031
      8 C         141.2728  142.6924  164.3777 C.ar    1  UNL1       -0.0071
      9 C         140.7118  143.0256  163.0271 C.3     1  UNL1        0.1222
     10 S         141.6975  144.0852  160.7797 S.O2    1  UNL1        0.0640
     11 O         140.2383  144.3595  160.9933 O.2     1  UNL1       -0.1528
     12 O         143.1567  143.8110  160.5662 O.2     1  UNL1       -0.1528
     13 C         140.4246  146.0542  157.5777 C.ar    1  UNL1        0.1401
     14 C         141.3420  145.5066  156.5249 C.ar    1  UNL1        0.0370
     15 C         142.3779  144.4852  156.8904 C.ar    1  UNL1        0.0045
     16 C         142.4964  144.0114  158.3086 C.ar    1  UNL1        0.0201
     17 C         141.5790  144.5590  159.3615 C.ar    1  UNL1        0.1252
     18 C         140.5431  145.5804  158.9960 C.ar    1  UNL1        0.0568
     19 C         139.0226  147.2911  155.7737 C.3     1  UNL1        0.2525
     20 O         139.3886  147.0756  157.2123 O.3     1  UNL1       -0.4714
     21 C         140.8552  141.2715  168.0596 C.2     1  UNL1        0.0047
     22 C         141.3410  141.6724  169.4209 C.2     1  UNL1        0.0598
     23 C         140.7181  141.0721  170.6464 C.2     1  UNL1        0.2679
     24 O         140.6174  141.8775  171.9078 O.2     1  UNL1       -0.2681
     25 N         140.1960  139.6664  170.6105 N.am    1  UNL1       -0.1934
     26 O         139.5731  139.0661  171.8359 O.3     1  UNL1       -0.2949
     27 H         140.2621  139.1377  169.7826 H       1  UNL1        0.1825
     28 H         139.5872  139.7151  172.5567 H       1  UNL1        0.2414
@<TRIPOS>BOND
     1    19    20    1
     2    20    13    1
     3    13    14   ar
     4    14    15   ar
     5    15    16   ar
     6    16    17   ar
     7    17    10    1
     8    10    11    2
     9    10    12    2
    10    10     1    1
    11     1     2    1
    12     2     3    1
    13     3     4   ar
    14     4     5   ar
    15     5     6   ar
    16     6    21    1
    17    21    22    2
    18    22    23    1
    19    23    24    2
    20    23    25   am
    21    25    26    1
    22     6     7   ar
    23     7     8   ar
    24     8     9    1
    25    17    18   ar
    26    18    13   ar
    27     9     1    1
    28     8     3   ar
    29    25    27    1
    30    26    28    1
@<TRIPOS>MOLECULE
*****
 28 30 0 0 0
SMALL
GASTEIGER

@<TRIPOS>ATOM
      1 N         138.4140  140.5007  161.1561 N.3     1  UNL1       -0.1466
      2 C         138.6627  139.0474  161.4319 C.3     1  UNL1        0.1222
      3 C         138.6808  138.8542  162.9193 C.ar    1  UNL1       -0.0071
      4 C         138.8829  137.6360  163.7708 C.ar    1  UNL1       -0.0031
      5 C         138.8474  137.7518  165.2659 C.ar    1  UNL1       -0.0003
      6 C         138.6098  139.0857  165.9094 C.ar    1  UNL1       -0.0001
      7 C         138.4078  140.3039  165.0579 C.ar    1  UNL1       -0.0031
      8 C         138.4433  140.1881  163.5628 C.ar    1  UNL1       -0.0071
      9 C         138.2784  141.2057  162.4731 C.3     1  UNL1        0.1222
     10 S         138.3179  141.1372  159.8013 S.O2    1  UNL1        0.0640
     11 O         138.9307  142.3926  160.3476 O.2     1  UNL1       -0.1528
     12 O         137.7050  139.8818  159.2550 O.2     1  UNL1       -0.1528
     13 C         137.2192  141.8238  156.0501 C.ar    1  UNL1        0.1401
     14 C         138.0294  143.0467  155.7367 C.ar    1  UNL1        0.0370
     15 C         138.9357  143.6330  156.7782 C.ar    1  UNL1        0.0045
     16 C         139.0318  142.9965  158.1331 C.ar    1  UNL1        0.0201
     17 C         138.2217  141.7737  158.4464 C.ar    1  UNL1        0.1252
     18 C         137.3154  141.1873  157.4049 C.ar    1  UNL1        0.0568
     19 C         134.9345  140.7808  155.3850 C.3     1  UNL1        0.2525
     20 O         136.3128  141.2374  155.0086 O.3     1  UNL1       -0.4714
     21 C         138.5743  139.2014  167.4046 C.2     1  UNL1        0.0047
     22 C         139.5358  140.1118  168.1094 C.2     1  UNL1        0.0598
     23 C         139.5003  140.2275  169.6046 C.2     1  UNL1        0.2679
     24 O         138.2041  140.0552  170.3396 O.2     1  UNL1       -0.2681
     25 N         140.7609  140.5155  170.3646 N.am    1  UNL1       -0.1934
     26 O         140.7254  140.6312  171.8597 O.3     1  UNL1       -0.2949
     27 H         141.6117  140.6285  169.8822 H       1  UNL1        0.1825
     28 H         139.8177  140.4941  172.1731 H       1  UNL1        0.2414
@<TRIPOS>BOND
     1    19    20    1
     2    20    13    1
     3    13    14   ar
     4    14    15   ar
     5    15    16   ar
     6    16    17   ar
     7    17    10    1
     8    10    11    2
     9    10    12    2
    10    10     1    1
    11     1     2    1
    12     2     3    1
    13     3     4   ar
    14     4     5   ar
    15     5     6   ar
    16     6    21    1
    17    21    22    2
    18    22    23    1
    19    23    24    2
    20    23    25   am
    21    25    26    1
    22     6     7   ar
    23     7     8   ar
    24     8     9    1
    25    17    18   ar
    26    18    13   ar
    27     9     1    1
    28     8     3   ar
    29    25    27    1
    30    26    28    1
@<TRIPOS>MOLECULE
*****
 28 30 0 0 0
SMALL
GASTEIGER

@<TRIPOS>ATOM
      1 N         140.8187  144.3711  161.4060 N.3     1  UNL1       -0.1466
      2 C         139.7081  145.0446  162.1564 C.3     1  UNL1        0.1222
      3 C         139.7436  144.5559  163.5742 C.ar    1  UNL1       -0.0071
      4 C         138.8910  144.8732  164.7668 C.ar    1  UNL1       -0.0031
      5 C         139.1708  144.2149  166.0852 C.ar    1  UNL1       -0.0003
      6 C         140.3033  143.2394  166.2110 C.ar    1  UNL1       -0.0001
      7 C         141.1559  142.9221  165.0184 C.ar    1  UNL1       -0.0031
      8 C         140.8760  143.5804  163.7000 C.ar    1  UNL1       -0.0071
      9 C         141.5405  143.4662  162.3600 C.3     1  UNL1        0.1222
     10 S         141.1493  144.5680  159.9562 S.O2    1  UNL1        0.0640
     11 O         142.5478  144.0884  160.2101 O.2     1  UNL1       -0.1528
     12 O         139.7509  145.0476  159.7024 O.2     1  UNL1       -0.1528
     13 C         142.7933  144.0517  156.3812 C.ar    1  UNL1        0.1401
     14 C         142.1414  145.1586  155.6069 C.ar    1  UNL1        0.0370
     15 C         141.1588  146.0686  156.2823 C.ar    1  UNL1        0.0045
     16 C         140.8281  145.8718  157.7321 C.ar    1  UNL1        0.0201
     17 C         141.4800  144.7649  158.5064 C.ar    1  UNL1        0.1252
     18 C         142.4626  143.8548  157.8310 C.ar    1  UNL1        0.0568
     19 C         144.1006  141.8076  156.3100 C.3     1  UNL1        0.2525
     20 O         143.7760  143.1416  155.7058 O.3     1  UNL1       -0.4714
     21 C         140.5832  142.5811  167.5295 C.2     1  UNL1        0.0047
     22 C         140.2979  143.3117  168.8081 C.2     1  UNL1        0.0598
     23 C         140.5777  142.6534  170.1266 C.2     1  UNL1        0.2679
     24 O         139.5530  141.7502  170.7464 O.2     1  UNL1       -0.2681
     25 N         141.8823  142.8983  170.8253 N.am    1  UNL1       -0.1934
     26 O         142.1621  142.2401  172.1437 O.3     1  UNL1       -0.2949
     27 H         142.5549  143.4911  170.4185 H       1  UNL1        0.1825
     28 H         141.4025  141.6941  172.4001 H       1  UNL1        0.2414
@<TRIPOS>BOND
     1    19    20    1
     2    20    13    1
     3    13    14   ar
     4    14    15   ar
     5    15    16   ar
     6    16    17   ar
     7    17    10    1
     8    10    11    2
     9    10    12    2
    10    10     1    1
    11     1     2    1
    12     2     3    1
    13     3     4   ar
    14     4     5   ar
    15     5     6   ar
    16     6    21    1
    17    21    22    2
    18    22    23    1
    19    23    24    2
    20    23    25   am
    21    25    26    1
    22     6     7   ar
    23     7     8   ar
    24     8     9    1
    25    17    18   ar
    26    18    13   ar
    27     9     1    1
    28     8     3   ar
    29    25    27    1
    30    26    28    1
@<TRIPOS>MOLECULE
*****
 28 30 0 0 0
SMALL
GASTEIGER

@<TRIPOS>ATOM
      1 N         140.2972  139.1622  162.4998 N.3     1  UNL1       -0.1466
      2 C         139.2146  138.5351  163.3273 C.3     1  UNL1        0.1222
      3 C         139.3008  139.1049  164.7122 C.ar    1  UNL1       -0.0071
      4 C         138.4918  138.8586  165.9510 C.ar    1  UNL1       -0.0031
      5 C         138.8186  139.5916  167.2182 C.ar    1  UNL1       -0.0003
      6 C         139.9546  140.5708  167.2466 C.ar    1  UNL1       -0.0001
      7 C         140.7636  140.8171  166.0078 C.ar    1  UNL1       -0.0031
      8 C         140.4368  140.0842  164.7406 C.ar    1  UNL1       -0.0071
      9 C         141.0525  140.1195  163.3733 C.3     1  UNL1        0.1222
     10 S         140.5756  138.8812  161.0529 S.O2    1  UNL1        0.0640
     11 O         140.9673  137.4757  161.4012 O.2     1  UNL1       -0.1528
     12 O         140.1839  140.2866  160.7046 O.2     1  UNL1       -0.1528
     13 C         140.0075  137.9567  157.2355 C.ar    1  UNL1        0.1401
     14 C         141.4108  138.0382  156.7122 C.ar    1  UNL1        0.0370
     15 C         142.5358  138.4007  157.6357 C.ar    1  UNL1        0.0045
     16 C         142.2574  138.6817  159.0827 C.ar    1  UNL1        0.0201
     17 C         140.8540  138.6002  159.6060 C.ar    1  UNL1        0.1252
     18 C         139.7291  138.2377  158.6824 C.ar    1  UNL1        0.0568
     19 C         139.1780  137.1217  154.9193 C.3     1  UNL1        0.2525
     20 O         138.8825  137.5942  156.3119 O.3     1  UNL1       -0.4714
     21 C         140.2814  141.3038  168.5140 C.2     1  UNL1        0.0047
     22 C         141.3248  142.3814  168.5094 C.2     1  UNL1        0.0598
     23 C         141.6516  143.1143  169.7767 C.2     1  UNL1        0.2679
     24 O         140.5474  143.6437  170.6430 O.2     1  UNL1       -0.2681
     25 N         143.0826  143.3178  170.1777 N.am    1  UNL1       -0.1934
     26 O         143.4094  144.0507  171.4449 O.3     1  UNL1       -0.2949
     27 H         143.8074  142.9703  169.6091 H       1  UNL1        0.1825
     28 H         142.5874  144.3235  171.8819 H       1  UNL1        0.2414
@<TRIPOS>BOND
     1    19    20    1
     2    20    13    1
     3    13    14   ar
     4    14    15   ar
     5    15    16   ar
     6    16    17   ar
     7    17    10    1
     8    10    11    2
     9    10    12    2
    10    10     1    1
    11     1     2    1
    12     2     3    1
    13     3     4   ar
    14     4     5   ar
    15     5     6   ar
    16     6    21    1
    17    21    22    2
    18    22    23    1
    19    23    24    2
    20    23    25   am
    21    25    26    1
    22     6     7   ar
    23     7     8   ar
    24     8     9    1
    25    17    18   ar
    26    18    13   ar
    27     9     1    1
    28     8     3   ar
    29    25    27    1
    30    26    28    1
@<TRIPOS>MOLECULE
*****
 28 30 0 0 0
SMALL
GASTEIGER

@<TRIPOS>ATOM
      1 N         142.0003  143.9542  161.9213 N.3     1  UNL1       -0.1466
      2 C         143.3461  143.6651  162.5172 C.3     1  UNL1        0.1222
      3 C         143.1434  143.2685  163.9495 C.ar    1  UNL1       -0.0071
      4 C         144.1083  142.8730  165.0277 C.ar    1  UNL1       -0.0031
      5 C         143.6021  142.5215  166.3952 C.ar    1  UNL1       -0.0003
      6 C         142.1309  142.5655  166.6845 C.ar    1  UNL1       -0.0001
      7 C         141.1660  142.9610  165.6064 C.ar    1  UNL1       -0.0031
      8 C         141.6722  143.3125  164.2389 C.ar    1  UNL1       -0.0071
      9 C         140.9658  143.7362  162.9853 C.3     1  UNL1        0.1222
     10 S         141.7355  144.3855  160.5092 S.O2    1  UNL1        0.0640
     11 O         140.4880  145.0874  160.9576 O.2     1  UNL1       -0.1528
     12 O         142.9829  143.6835  160.0609 O.2     1  UNL1       -0.1528
     13 C         142.0994  144.7760  156.5767 C.ar    1  UNL1        0.1401
     14 C         140.9410  145.6793  156.2731 C.ar    1  UNL1        0.0370
     15 C         140.0475  146.1513  157.3815 C.ar    1  UNL1        0.0045
     16 C         140.3123  145.7200  158.7936 C.ar    1  UNL1        0.0201
     17 C         141.4706  144.8167  159.0972 C.ar    1  UNL1        0.1252
     18 C         142.3642  144.3447  157.9887 C.ar    1  UNL1        0.0568
     19 C         143.6666  142.9672  155.5655 C.3     1  UNL1        0.2525
     20 O         142.9930  144.3039  155.4682 O.3     1  UNL1       -0.4714
     21 C         141.6247  142.2140  168.0521 C.2     1  UNL1        0.0047
     22 C         140.4350  141.3129  168.2028 C.2     1  UNL1        0.0598
     23 C         139.9288  140.9613  169.5704 C.2     1  UNL1        0.2679
     24 O         139.1935  141.9848  170.3839 O.2     1  UNL1       -0.2681
     25 N         140.1578  139.5864  170.1244 N.am    1  UNL1       -0.1934
     26 O         139.6516  139.2349  171.4919 O.3     1  UNL1       -0.2949
     27 H         140.6404  138.9146  169.5904 H       1  UNL1        0.1825
     28 H         139.2030  140.0034  171.8780 H       1  UNL1        0.2414
@<TRIPOS>BOND
     1    19    20    1
     2    20    13    1
     3    13    14   ar
     4    14    15   ar
     5    15    16   ar
     6    16    17   ar
     7    17    10    1
     8    10    11    2
     9    10    12    2
    10    10     1    1
    11     1     2    1
    12     2     3    1
    13     3     4   ar
    14     4     5   ar
    15     5     6   ar
    16     6    21    1
    17    21    22    2
    18    22    23    1
    19    23    24    2
    20    23    25   am
    21    25    26    1
    22     6     7   ar
    23     7     8   ar
    24     8     9    1
    25    17    18   ar
    26    18    13   ar
    27     9     1    1
    28     8     3   ar
    29    25    27    1
    30    26    28    1
@<TRIPOS>MOLECULE
*****
 28 30 0 0 0
SMALL
GASTEIGER

@<TRIPOS>ATOM
      1 N         140.1401  138.8999  162.1430 N.3     1  UNL1       -0.1466
      2 C         138.8716  138.5490  162.8625 C.3     1  UNL1        0.1222
      3 C         139.0578  138.8730  164.3152 C.ar    1  UNL1       -0.0071
      4 C         138.1463  138.7373  165.4987 C.ar    1  UNL1       -0.0031
      5 C         138.6184  139.1529  166.8605 C.ar    1  UNL1       -0.0003
      6 C         140.0020  139.7040  167.0387 C.ar    1  UNL1       -0.0001
      7 C         140.9135  139.8397  165.8553 C.ar    1  UNL1       -0.0031
      8 C         140.4414  139.4242  164.4935 C.ar    1  UNL1       -0.0071
      9 C         141.1103  139.4408  163.1510 C.3     1  UNL1        0.1222
     10 S         140.3938  138.7383  160.6734 S.O2    1  UNL1        0.0640
     11 O         141.8570  138.5529  160.9465 O.2     1  UNL1       -0.1528
     12 O         138.9305  138.9238  160.4004 O.2     1  UNL1       -0.1528
     13 C         142.2457  137.9584  157.2512 C.ar    1  UNL1        0.1401
     14 C         141.1549  138.2536  156.2648 C.ar    1  UNL1        0.0370
     15 C         139.8104  138.7104  156.7480 C.ar    1  UNL1        0.0045
     16 C         139.5567  138.8720  158.2176 C.ar    1  UNL1        0.0201
     17 C         140.6475  138.5768  159.2039 C.ar    1  UNL1        0.1252
     18 C         141.9920  138.1199  158.7207 C.ar    1  UNL1        0.0568
     19 C         143.7405  136.1494  156.1360 C.3     1  UNL1        0.2525
     20 O         143.5903  137.5015  156.7680 O.3     1  UNL1       -0.4714
     21 C         140.4741  140.1195  168.4006 C.2     1  UNL1        0.0047
     22 C         141.9389  140.3114  168.6604 C.2     1  UNL1        0.0598
     23 C         142.4109  140.7269  170.0223 C.2     1  UNL1        0.2679
     24 O         143.5728  140.0244  170.6599 O.2     1  UNL1       -0.2681
     25 N         141.7212  141.8448  170.7464 N.am    1  UNL1       -0.1934
     26 O         142.1933  142.2603  172.1081 O.3     1  UNL1       -0.2949
     27 H         140.9586  142.3059  170.3278 H       1  UNL1        0.1825
     28 H         142.9468  141.7090  172.3712 H       1  UNL1        0.2414
@<TRIPOS>BOND
     1    19    20    1
     2    20    13    1
     3    13    14   ar
     4    14    15   ar
     5    15    16   ar
     6    16    17   ar
     7    17    10    1
     8    10    11    2
     9    10    12    2
    10    10     1    1
    11     1     2    1
    12     2     3    1
    13     3     4   ar
    14     4     5   ar
    15     5     6   ar
    16     6    21    1
    17    21    22    2
    18    22    23    1
    19    23    24    2
    20    23    25   am
    21    25    26    1
    22     6     7   ar
    23     7     8   ar
    24     8     9    1
    25    17    18   ar
    26    18    13   ar
    27     9     1    1
    28     8     3   ar
    29    25    27    1
    30    26    28    1
@<TRIPOS>MOLECULE
*****
 28 30 0 0 0
SMALL
GASTEIGER

@<TRIPOS>ATOM
      1 N         141.2115  141.5621  165.2344 N.3     1  UNL1       -0.1466
      2 C         141.3738  142.5891  166.3155 C.3     1  UNL1        0.1222
      3 C         140.6992  142.0719  167.5514 C.ar    1  UNL1       -0.0071
      4 C         140.5376  142.6532  168.9246 C.ar    1  UNL1       -0.0031
      5 C         139.7967  141.8877  169.9806 C.ar    1  UNL1       -0.0003
      6 C         139.2174  140.5410  169.6633 C.ar    1  UNL1       -0.0001
      7 C         139.3790  139.9597  168.2900 C.ar    1  UNL1       -0.0031
      8 C         140.1199  140.7251  167.2341 C.ar    1  UNL1       -0.0071
      9 C         140.4365  140.4101  165.8021 C.3     1  UNL1        0.1222
     10 S         141.7325  141.6684  163.8318 S.O2    1  UNL1        0.0640
     11 O         141.4675  143.1447  163.8452 O.2     1  UNL1       -0.1528
     12 O         141.9976  140.1921  163.8184 O.2     1  UNL1       -0.1528
     13 C         142.2010  142.9014  160.0888 C.ar    1  UNL1        0.1401
     14 C         143.2958  141.9873  159.6241 C.ar    1  UNL1        0.0370
     15 C         143.8695  140.9670  160.5620 C.ar    1  UNL1        0.0045
     16 C         143.3484  140.8607  161.9646 C.ar    1  UNL1        0.0201
     17 C         142.2536  141.7747  162.4293 C.ar    1  UNL1        0.1252
     18 C         141.6800  142.7951  161.4914 C.ar    1  UNL1        0.0568
     19 C         141.0806  145.2111  159.6885 C.3     1  UNL1        0.2525
     20 O         141.6273  143.9219  159.1509 O.3     1  UNL1       -0.4714
     21 C         138.4765  139.7755  170.7194 C.2     1  UNL1        0.0047
     22 C         137.1328  139.1835  170.4128 C.2     1  UNL1        0.0598
     23 C         136.3919  138.4180  171.4689 C.2     1  UNL1        0.2679
     24 O         135.5389  139.1472  172.4642 O.2     1  UNL1       -0.2681
     25 N         136.5040  136.9235  171.5296 N.am    1  UNL1       -0.1934
     26 O         135.7631  136.1581  172.5856 O.3     1  UNL1       -0.2949
     27 H         137.0639  136.4449  170.8763 H       1  UNL1        0.1825
     28 H         135.2637  136.7759  173.1422 H       1  UNL1        0.2414
@<TRIPOS>BOND
     1    19    20    1
     2    20    13    1
     3    13    14   ar
     4    14    15   ar
     5    15    16   ar
     6    16    17   ar
     7    17    10    1
     8    10    11    2
     9    10    12    2
    10    10     1    1
    11     1     2    1
    12     2     3    1
    13     3     4   ar
    14     4     5   ar
    15     5     6   ar
    16     6    21    1
    17    21    22    2
    18    22    23    1
    19    23    24    2
    20    23    25   am
    21    25    26    1
    22     6     7   ar
    23     7     8   ar
    24     8     9    1
    25    17    18   ar
    26    18    13   ar
    27     9     1    1
    28     8     3   ar
    29    25    27    1
    30    26    28    1
