@<TRIPOS>MOLECULE
*****
 38 43 0 0 0
SMALL
GASTEIGER

@<TRIPOS>ATOM
      1 N         136.7919  141.3199  163.3115 N.pl3   1  UNL1       -0.3133
      2 C         138.1742  141.6907  163.7606 C.2     1  UNL1        0.2773
      3 N         139.2470  142.2955  162.9042 N.2     1  UNL1       -0.2161
      4 C         140.4623  142.5004  163.7592 C.3     1  UNL1        0.1721
      5 C         140.1407  142.0222  165.1441 C.3     1  UNL1        0.2392
      6 O         138.7266  141.5218  165.1449 O.2     1  UNL1       -0.4474
      7 C         140.6377  142.9372  162.3350 C.ar    1  UNL1        0.0411
      8 C         139.5057  142.7930  161.3615 C.ar    1  UNL1        0.0157
      9 C         139.6810  143.2299  159.9372 C.ar    1  UNL1        0.0505
     10 C         140.9884  143.8109  159.4866 C.ar    1  UNL1        0.0178
     11 C         142.1204  143.9551  160.4601 C.ar    1  UNL1        0.0385
     12 C         141.9450  143.5183  161.8843 C.ar    1  UNL1        0.1436
     13 O         143.0770  143.6625  162.8578 O.3     1  UNL1       -0.4524
     14 C         142.9016  143.2256  164.2820 C.ar    1  UNL1        0.1625
     15 C         144.0336  143.3698  165.2556 C.ar    1  UNL1        0.1359
     16 N         143.8583  142.9330  166.6798 N.ar    1  UNL1       -0.2409
     17 C         142.5509  142.3519  167.1305 C.ar    1  UNL1        0.0794
     18 C         141.4189  142.2077  166.1570 C.ar    1  UNL1        0.0199
     19 C         141.5943  142.6446  164.7328 C.ar    1  UNL1        0.0430
     20 H         136.5211  141.4701  162.3770 H       1  UNL1        0.1466
     21 H         136.1554  140.9265  163.9513 H       1  UNL1        0.1466
     22 C         142.3755  141.9151  168.5548 C.2     1  UNL1        0.0207
     23 C         142.7386  140.5175  168.9607 C.2     1  UNL1       -0.0239
     24 C         142.5632  140.0806  170.3849 C.3     1  UNL1        0.0579
     25 C         142.0248  141.0414  171.4031 C.3     1  UNL1        0.1473
     26 O         141.6617  142.4390  170.9972 O.3     1  UNL1       -0.3486
     27 C         141.8371  142.8759  169.5731 C.3     1  UNL1        0.1698
     28 N         138.5490  143.0857  158.9637 N.am    1  UNL1       -0.2791
     29 C         138.5157  141.9207  158.0193 C.2     1  UNL1        0.2672
     30 O         139.6145  140.8999  158.0486 O.2     1  UNL1       -0.2682
     31 H         137.8279  143.7556  158.9446 H       1  UNL1        0.1552
     32 C         137.3837  141.7765  157.0458 C.ar    1  UNL1        0.1348
     33 C         137.1718  142.8136  155.9831 C.ar    1  UNL1        0.0246
     34 C         136.0398  142.6694  155.0096 C.ar    1  UNL1        0.0147
     35 C         135.1198  141.4881  155.0988 C.ar    1  UNL1        0.0768
     36 CL        133.9878  141.3439  154.1253 Cl      1  UNL1       -0.0806
     37 C         135.3317  140.4509  156.1615 C.ar    1  UNL1        0.1103
     38 N         136.4637  140.5951  157.1350 N.ar    1  UNL1       -0.2384
@<TRIPOS>BOND
     1     1     2    1
     2     2     3    2
     3     3     4    1
     4     4     5    1
     5     5     6    1
     6     4     7    1
     7     7     8   ar
     8     8     9   ar
     9     9    28    1
    10    28    29   am
    11    29    30    2
    12    29    32    1
    13    32    33   ar
    14    33    34   ar
    15    34    35   ar
    16    35    36    1
    17    35    37   ar
    18    37    38   ar
    19     9    10   ar
    20    10    11   ar
    21    11    12   ar
    22    12    13    1
    23    13    14    1
    24    14    15   ar
    25    15    16   ar
    26    16    17   ar
    27    17    22    1
    28    22    23    2
    29    23    24    1
    30    24    25    1
    31    25    26    1
    32    26    27    1
    33    17    18   ar
    34    18    19   ar
    35     6     2    1
    36    12     7   ar
    37    19    14   ar
    38    19     4    1
    39    38    32   ar
    40    27    22    1
    41     1    20    1
    42     1    21    1
    43    28    31    1
@<TRIPOS>MOLECULE
*****
 38 43 0 0 0
SMALL
GASTEIGER

@<TRIPOS>ATOM
      1 N         145.5355  142.2521  162.7585 N.pl3   1  UNL1       -0.3133
      2 C         144.2266  141.7057  163.2466 C.2     1  UNL1        0.2773
      3 N         143.2750  140.8579  162.4555 N.2     1  UNL1       -0.2161
      4 C         142.0997  140.5394  163.3314 C.3     1  UNL1        0.1721
      5 C         142.3249  141.1904  164.6639 C.3     1  UNL1        0.2392
      6 O         143.6393  141.9111  164.6115 O.2     1  UNL1       -0.4474
      7 C         142.0126  139.9492  161.9552 C.ar    1  UNL1        0.0411
      8 C         143.1168  140.1835  160.9673 C.ar    1  UNL1        0.0157
      9 C         143.0297  139.5933  159.5911 C.ar    1  UNL1        0.0505
     10 C         141.8384  138.7687  159.2028 C.ar    1  UNL1        0.0178
     11 C         140.7343  138.5343  160.1906 C.ar    1  UNL1        0.0385
     12 C         140.8214  139.1245  161.5668 C.ar    1  UNL1        0.1436
     13 O         139.7172  138.8902  162.5546 O.3     1  UNL1       -0.4524
     14 C         139.8043  139.4804  163.9309 C.ar    1  UNL1        0.1625
     15 C         138.7001  139.2461  164.9187 C.ar    1  UNL1        0.1359
     16 N         138.7872  139.8363  166.2950 N.ar    1  UNL1       -0.2409
     17 C         139.9785  140.6610  166.6834 C.ar    1  UNL1        0.0794
     18 C         141.0827  140.8953  165.6955 C.ar    1  UNL1        0.0199
     19 C         140.9956  140.3051  164.3193 C.ar    1  UNL1        0.0430
     20 H         145.8370  142.0614  161.8410 H       1  UNL1        0.1466
     21 H         146.0930  142.8013  163.3558 H       1  UNL1        0.1466
     22 C         140.0656  141.2512  168.0596 C.2     1  UNL1        0.0207
     23 C         140.5484  142.6596  168.2425 C.2     1  UNL1       -0.0239
     24 C         140.6355  143.2498  169.6187 C.3     1  UNL1        0.0579
     25 C         140.2398  142.4317  170.8120 C.3     1  UNL1        0.1473
     26 O         139.7570  141.0234  170.6291 O.3     1  UNL1       -0.3486
     27 C         139.6699  140.4331  169.2530 C.3     1  UNL1        0.1698
     28 N         144.1339  139.8277  158.6032 N.am    1  UNL1       -0.2791
     29 C         144.1934  141.1156  157.8364 C.2     1  UNL1        0.2672
     30 O         143.1487  142.1690  158.0576 O.2     1  UNL1       -0.2682
     31 H         144.8195  139.1362  158.4581 H       1  UNL1        0.1552
     32 C         145.2976  141.3499  156.8486 C.ar    1  UNL1        0.1348
     33 C         145.2994  140.6193  155.5386 C.ar    1  UNL1        0.0246
     34 C         146.4036  140.8537  154.5507 C.ar    1  UNL1        0.0147
     35 C         147.5059  141.8187  154.8729 C.ar    1  UNL1        0.0768
     36 CL        148.6101  142.0530  153.8851 Cl      1  UNL1       -0.0806
     37 C         147.5041  142.5493  156.1830 C.ar    1  UNL1        0.1103
     38 N         146.3999  142.3149  157.1708 N.ar    1  UNL1       -0.2384
@<TRIPOS>BOND
     1     1     2    1
     2     2     3    2
     3     3     4    1
     4     4     5    1
     5     5     6    1
     6     4     7    1
     7     7     8   ar
     8     8     9   ar
     9     9    28    1
    10    28    29   am
    11    29    30    2
    12    29    32    1
    13    32    33   ar
    14    33    34   ar
    15    34    35   ar
    16    35    36    1
    17    35    37   ar
    18    37    38   ar
    19     9    10   ar
    20    10    11   ar
    21    11    12   ar
    22    12    13    1
    23    13    14    1
    24    14    15   ar
    25    15    16   ar
    26    16    17   ar
    27    17    22    1
    28    22    23    2
    29    23    24    1
    30    24    25    1
    31    25    26    1
    32    26    27    1
    33    17    18   ar
    34    18    19   ar
    35     6     2    1
    36    12     7   ar
    37    19    14   ar
    38    19     4    1
    39    38    32   ar
    40    27    22    1
    41     1    20    1
    42     1    21    1
    43    28    31    1
@<TRIPOS>MOLECULE
*****
 38 43 0 0 0
SMALL
GASTEIGER

@<TRIPOS>ATOM
      1 N         140.1920  146.1858  162.3723 N.pl3   1  UNL1       -0.3133
      2 C         139.9886  144.8386  162.9999 C.2     1  UNL1        0.2773
      3 N         139.5846  143.5842  162.2836 N.2     1  UNL1       -0.2161
      4 C         139.4998  142.4797  163.2950 C.3     1  UNL1        0.1721
      5 C         139.8514  143.0515  164.6364 C.3     1  UNL1        0.2392
      6 O         140.1535  144.5094  164.4540 O.2     1  UNL1       -0.4474
      7 C         139.1714  142.0517  161.8953 C.ar    1  UNL1        0.0411
      8 C         139.2142  143.0498  160.7764 C.ar    1  UNL1        0.0157
      9 C         138.8858  142.6219  159.3767 C.ar    1  UNL1        0.0505
     10 C         138.5146  141.1959  159.0961 C.ar    1  UNL1        0.0178
     11 C         138.4718  140.1979  160.2150 C.ar    1  UNL1        0.0385
     12 C         138.8002  140.6258  161.6146 C.ar    1  UNL1        0.1436
     13 O         138.7574  139.6277  162.7335 O.3     1  UNL1       -0.4524
     14 C         139.0858  140.0557  164.1332 C.ar    1  UNL1        0.1625
     15 C         139.0430  139.0576  165.2521 C.ar    1  UNL1        0.1359
     16 N         139.3714  139.4855  166.6518 N.ar    1  UNL1       -0.2409
     17 C         139.7426  140.9115  166.9325 C.ar    1  UNL1        0.0794
     18 C         139.7854  141.9095  165.8136 C.ar    1  UNL1        0.0199
     19 C         139.4570  141.4816  164.4139 C.ar    1  UNL1        0.0430
     20 H         140.0589  146.3028  161.4039 H       1  UNL1        0.1466
     21 H         140.4586  146.9529  162.9288 H       1  UNL1        0.1466
     22 C         140.0711  141.3394  168.3322 C.2     1  UNL1        0.0207
     23 C         140.7359  142.6618  168.5757 C.2     1  UNL1       -0.0239
     24 C         141.0643  143.0897  169.9754 C.3     1  UNL1        0.0579
     25 C         140.7278  142.1953  171.1315 C.3     1  UNL1        0.1473
     26 O         140.0630  140.8729  170.8880 O.3     1  UNL1       -0.3486
     27 C         139.7346  140.4450  169.4884 C.3     1  UNL1        0.1698
     28 N         138.9286  143.6199  158.2578 N.am    1  UNL1       -0.2791
     29 C         140.2474  144.1351  157.7623 C.2     1  UNL1        0.2672
     30 O         141.5234  143.6523  158.3858 O.2     1  UNL1       -0.2682
     31 H         138.0911  143.9368  157.8485 H       1  UNL1        0.1552
     32 C         140.2902  145.1332  156.6433 C.ar    1  UNL1        0.1348
     33 C         141.0520  144.8217  155.3893 C.ar    1  UNL1        0.0246
     34 C         141.0948  145.8198  154.2704 C.ar    1  UNL1        0.0147
     35 C         140.3758  147.1293  154.4055 C.ar    1  UNL1        0.0768
     36 CL        140.4186  148.1273  153.2865 Cl      1  UNL1       -0.0806
     37 C         139.6139  147.4407  155.6595 C.ar    1  UNL1        0.1103
     38 N         139.5711  146.4427  156.7784 N.ar    1  UNL1       -0.2384
@<TRIPOS>BOND
     1     1     2    1
     2     2     3    2
     3     3     4    1
     4     4     5    1
     5     5     6    1
     6     4     7    1
     7     7     8   ar
     8     8     9   ar
     9     9    28    1
    10    28    29   am
    11    29    30    2
    12    29    32    1
    13    32    33   ar
    14    33    34   ar
    15    34    35   ar
    16    35    36    1
    17    35    37   ar
    18    37    38   ar
    19     9    10   ar
    20    10    11   ar
    21    11    12   ar
    22    12    13    1
    23    13    14    1
    24    14    15   ar
    25    15    16   ar
    26    16    17   ar
    27    17    22    1
    28    22    23    2
    29    23    24    1
    30    24    25    1
    31    25    26    1
    32    26    27    1
    33    17    18   ar
    34    18    19   ar
    35     6     2    1
    36    12     7   ar
    37    19    14   ar
    38    19     4    1
    39    38    32   ar
    40    27    22    1
    41     1    20    1
    42     1    21    1
    43    28    31    1
@<TRIPOS>MOLECULE
*****
 38 43 0 0 0
SMALL
GASTEIGER

@<TRIPOS>ATOM
      1 N         136.7231  141.1552  162.7856 N.pl3   1  UNL1       -0.3133
      2 C         138.0148  140.6699  163.3737 C.2     1  UNL1        0.2773
      3 N         139.1303  140.0045  162.6235 N.2     1  UNL1       -0.2161
      4 C         140.2227  139.6881  163.6015 C.3     1  UNL1        0.1721
      5 C         139.7824  140.1579  164.9562 C.3     1  UNL1        0.2392
      6 O         138.4178  140.7647  164.8154 O.2     1  UNL1       -0.4474
      7 C         140.5256  139.2715  162.1926 C.ar    1  UNL1        0.0411
      8 C         139.5247  139.5238  161.1043 C.ar    1  UNL1        0.0157
      9 C         139.8276  139.1073  159.6955 C.ar    1  UNL1        0.0505
     10 C         141.1313  138.4385  159.3751 C.ar    1  UNL1        0.0178
     11 C         142.1323  138.1862  160.4634 C.ar    1  UNL1        0.0385
     12 C         141.8294  138.6027  161.8721 C.ar    1  UNL1        0.1436
     13 O         142.8303  138.3504  162.9605 O.3     1  UNL1       -0.4524
     14 C         142.5274  138.7669  164.3693 C.ar    1  UNL1        0.1625
     15 C         143.5283  138.5146  165.4576 C.ar    1  UNL1        0.1359
     16 N         143.2254  138.9312  166.8665 N.ar    1  UNL1       -0.2409
     17 C         141.9216  139.6000  167.1870 C.ar    1  UNL1        0.0794
     18 C         140.9207  139.8523  166.0986 C.ar    1  UNL1        0.0199
     19 C         141.2236  139.4358  164.6898 C.ar    1  UNL1        0.0430
     20 H         136.5495  141.0475  161.8225 H       1  UNL1        0.1466
     21 H         136.0489  141.5816  163.3626 H       1  UNL1        0.1466
     22 C         141.6187  140.0165  168.5958 C.2     1  UNL1        0.0207
     23 C         140.2014  140.2756  169.0130 C.2     1  UNL1       -0.0239
     24 C         139.8985  140.6921  170.4218 C.3     1  UNL1        0.0579
     25 C         141.0129  140.8496  171.4133 C.3     1  UNL1        0.1473
     26 O         142.4302  140.5905  170.9961 O.3     1  UNL1       -0.3486
     27 C         142.7331  140.1740  169.5874 C.3     1  UNL1        0.1698
     28 N         138.8267  139.3596  158.6071 N.am    1  UNL1       -0.2791
     29 C         138.7589  140.7052  157.9476 C.2     1  UNL1        0.2672
     30 O         139.6922  141.7984  158.3765 O.2     1  UNL1       -0.2682
     31 H         138.2142  138.6420  158.3257 H       1  UNL1        0.1552
     32 C         137.7580  140.9575  156.8593 C.ar    1  UNL1        0.1348
     33 C         138.1870  141.6234  155.5855 C.ar    1  UNL1        0.0246
     34 C         137.1861  141.8757  154.4971 C.ar    1  UNL1        0.0147
     35 C         135.7562  141.4620  154.6826 C.ar    1  UNL1        0.0768
     36 CL        134.7553  141.7143  153.5943 Cl      1  UNL1       -0.0806
     37 C         135.3272  140.7961  155.9564 C.ar    1  UNL1        0.1103
     38 N         136.3281  140.5438  157.0447 N.ar    1  UNL1       -0.2384
@<TRIPOS>BOND
     1     1     2    1
     2     2     3    2
     3     3     4    1
     4     4     5    1
     5     5     6    1
     6     4     7    1
     7     7     8   ar
     8     8     9   ar
     9     9    28    1
    10    28    29   am
    11    29    30    2
    12    29    32    1
    13    32    33   ar
    14    33    34   ar
    15    34    35   ar
    16    35    36    1
    17    35    37   ar
    18    37    38   ar
    19     9    10   ar
    20    10    11   ar
    21    11    12   ar
    22    12    13    1
    23    13    14    1
    24    14    15   ar
    25    15    16   ar
    26    16    17   ar
    27    17    22    1
    28    22    23    2
    29    23    24    1
    30    24    25    1
    31    25    26    1
    32    26    27    1
    33    17    18   ar
    34    18    19   ar
    35     6     2    1
    36    12     7   ar
    37    19    14   ar
    38    19     4    1
    39    38    32   ar
    40    27    22    1
    41     1    20    1
    42     1    21    1
    43    28    31    1
@<TRIPOS>MOLECULE
*****
 38 43 0 0 0
SMALL
GASTEIGER

@<TRIPOS>ATOM
      1 N         143.8321  142.7989  162.3033 N.pl3   1  UNL1       -0.3133
      2 C         142.7867  142.0480  163.0736 C.2     1  UNL1        0.2773
      3 N         141.8367  141.0325  162.5115 N.2     1  UNL1       -0.2161
      4 C         140.9707  140.5377  163.6318 C.3     1  UNL1        0.1721
      5 C         141.3855  141.2474  164.8865 C.3     1  UNL1        0.2392
      6 O         142.5079  142.1808  164.5415 O.2     1  UNL1       -0.4474
      7 C         140.6674  139.9103  162.3035 C.ar    1  UNL1        0.0411
      8 C         141.4536  140.3076  161.0894 C.ar    1  UNL1        0.0157
      9 C         141.1503  139.6802  159.7611 C.ar    1  UNL1        0.0505
     10 C         140.0608  138.6556  159.6469 C.ar    1  UNL1        0.0178
     11 C         139.2746  138.2584  160.8610 C.ar    1  UNL1        0.0385
     12 C         139.5779  138.8857  162.1893 C.ar    1  UNL1        0.1436
     13 O         138.7916  138.4884  163.4034 O.3     1  UNL1       -0.4524
     14 C         139.0950  139.1158  164.7317 C.ar    1  UNL1        0.1625
     15 C         138.3088  138.7185  165.9458 C.ar    1  UNL1        0.1359
     16 N         138.6121  139.3459  167.2741 N.ar    1  UNL1       -0.2409
     17 C         139.7016  140.3705  167.3883 C.ar    1  UNL1        0.0794
     18 C         140.4878  140.7678  166.1743 C.ar    1  UNL1        0.0199
     19 C         140.1845  140.1404  164.8459 C.ar    1  UNL1        0.0430
     20 H         143.9393  142.6419  161.3373 H       1  UNL1        0.1466
     21 H         144.4109  143.4487  162.7636 H       1  UNL1        0.1466
     22 C         140.0049  140.9979  168.7167 C.2     1  UNL1        0.0207
     23 C         140.3720  142.4502  168.7939 C.2     1  UNL1       -0.0239
     24 C         140.6753  143.0776  170.1222 C.3     1  UNL1        0.0579
     25 C         140.6115  142.2526  171.3732 C.3     1  UNL1        0.1473
     26 O         140.2444  140.8003  171.2961 O.3     1  UNL1       -0.3486
     27 C         139.9411  140.1729  169.9678 C.3     1  UNL1        0.1698
     28 N         141.9365  140.0775  158.5470 N.am    1  UNL1       -0.2791
     29 C         143.3939  139.7353  158.4522 C.2     1  UNL1        0.2672
     30 O         144.0651  138.9959  159.5715 O.2     1  UNL1       -0.2682
     31 H         141.4960  140.5627  157.8124 H       1  UNL1        0.1552
     32 C         144.1801  140.1326  157.2381 C.ar    1  UNL1        0.1348
     33 C         144.7632  141.5112  157.1402 C.ar    1  UNL1        0.0246
     34 C         145.5494  141.9084  155.9261 C.ar    1  UNL1        0.0147
     35 C         145.7525  140.9271  154.8099 C.ar    1  UNL1        0.0768
     36 CL        146.5388  141.3244  153.5958 Cl      1  UNL1       -0.0806
     37 C         145.1695  139.5485  154.9079 C.ar    1  UNL1        0.1103
     38 N         144.3833  139.1513  156.1219 N.ar    1  UNL1       -0.2384
@<TRIPOS>BOND
     1     1     2    1
     2     2     3    2
     3     3     4    1
     4     4     5    1
     5     5     6    1
     6     4     7    1
     7     7     8   ar
     8     8     9   ar
     9     9    28    1
    10    28    29   am
    11    29    30    2
    12    29    32    1
    13    32    33   ar
    14    33    34   ar
    15    34    35   ar
    16    35    36    1
    17    35    37   ar
    18    37    38   ar
    19     9    10   ar
    20    10    11   ar
    21    11    12   ar
    22    12    13    1
    23    13    14    1
    24    14    15   ar
    25    15    16   ar
    26    16    17   ar
    27    17    22    1
    28    22    23    2
    29    23    24    1
    30    24    25    1
    31    25    26    1
    32    26    27    1
    33    17    18   ar
    34    18    19   ar
    35     6     2    1
    36    12     7   ar
    37    19    14   ar
    38    19     4    1
    39    38    32   ar
    40    27    22    1
    41     1    20    1
    42     1    21    1
    43    28    31    1
@<TRIPOS>MOLECULE
*****
 38 43 0 0 0
SMALL
GASTEIGER

@<TRIPOS>ATOM
      1 N         140.7244  146.2109  162.7067 N.pl3   1  UNL1       -0.3133
      2 C         141.3085  144.9013  163.1467 C.2     1  UNL1        0.2773
      3 N         141.9706  143.8888  162.2598 N.2     1  UNL1       -0.2161
      4 C         142.4045  142.7359  163.1157 C.3     1  UNL1        0.1721
      5 C         142.0105  143.0359  164.5316 C.3     1  UNL1        0.2392
      6 O         141.3332  144.3741  164.5507 O.2     1  UNL1       -0.4474
      7 C         142.7352  142.5746  161.6615 C.ar    1  UNL1        0.0411
      8 C         142.3618  143.6490  160.6837 C.ar    1  UNL1        0.0157
      9 C         142.6925  143.4876  159.2295 C.ar    1  UNL1        0.0505
     10 C         143.3967  142.2519  158.7533 C.ar    1  UNL1        0.0178
     11 C         143.7701  141.1774  159.7311 C.ar    1  UNL1        0.0385
     12 C         143.4394  141.3388  161.1851 C.ar    1  UNL1        0.1436
     13 O         143.8128  140.2644  162.1629 O.3     1  UNL1       -0.4524
     14 C         143.4821  140.4257  163.6171 C.ar    1  UNL1        0.1625
     15 C         143.8555  139.3513  164.5949 C.ar    1  UNL1        0.1359
     16 N         143.5248  139.5127  166.0491 N.ar    1  UNL1       -0.2409
     17 C         142.8206  140.7485  166.5255 C.ar    1  UNL1        0.0794
     18 C         142.4472  141.8229  165.5477 C.ar    1  UNL1        0.0199
     19 C         142.7779  141.6615  164.0935 C.ar    1  UNL1        0.0430
     20 H         140.7566  146.4702  161.7575 H       1  UNL1        0.1466
     21 H         140.3087  146.8112  163.3672 H       1  UNL1        0.1466
     22 C         142.4899  140.9098  167.9797 C.2     1  UNL1        0.0207
     23 C         143.0329  142.0786  168.7471 C.2     1  UNL1       -0.0239
     24 C         142.7022  142.2400  170.2013 C.3     1  UNL1        0.0579
     25 C         141.8285  141.2326  170.8879 C.3     1  UNL1        0.1473
     26 O         141.2855  140.0638  170.1205 O.3     1  UNL1       -0.3486
     27 C         141.6162  139.9024  168.6664 C.3     1  UNL1        0.1698
     28 N         142.3191  144.5621  158.2517 N.am    1  UNL1       -0.2791
     29 C         140.9116  144.6555  157.7413 C.2     1  UNL1        0.2672
     30 O         139.8776  143.6744  158.2088 O.2     1  UNL1       -0.2682
     31 H         142.9977  145.2059  157.9449 H       1  UNL1        0.1552
     32 C         140.5382  145.7299  156.7635 C.ar    1  UNL1        0.1348
     33 C         141.1897  145.7745  155.4132 C.ar    1  UNL1        0.0246
     34 C         140.8163  146.8489  154.4354 C.ar    1  UNL1        0.0147
     35 C         139.7913  147.8788  154.8079 C.ar    1  UNL1        0.0768
     36 CL        139.4179  148.9532  153.8301 Cl      1  UNL1       -0.0806
     37 C         139.1397  147.8342  156.1583 C.ar    1  UNL1        0.1103
     38 N         139.5132  146.7598  157.1361 N.ar    1  UNL1       -0.2384
@<TRIPOS>BOND
     1     1     2    1
     2     2     3    2
     3     3     4    1
     4     4     5    1
     5     5     6    1
     6     4     7    1
     7     7     8   ar
     8     8     9   ar
     9     9    28    1
    10    28    29   am
    11    29    30    2
    12    29    32    1
    13    32    33   ar
    14    33    34   ar
    15    34    35   ar
    16    35    36    1
    17    35    37   ar
    18    37    38   ar
    19     9    10   ar
    20    10    11   ar
    21    11    12   ar
    22    12    13    1
    23    13    14    1
    24    14    15   ar
    25    15    16   ar
    26    16    17   ar
    27    17    22    1
    28    22    23    2
    29    23    24    1
    30    24    25    1
    31    25    26    1
    32    26    27    1
    33    17    18   ar
    34    18    19   ar
    35     6     2    1
    36    12     7   ar
    37    19    14   ar
    38    19     4    1
    39    38    32   ar
    40    27    22    1
    41     1    20    1
    42     1    21    1
    43    28    31    1
@<TRIPOS>MOLECULE
*****
 38 43 0 0 0
SMALL
GASTEIGER

@<TRIPOS>ATOM
      1 N         137.6890  143.6731  161.8754 N.pl3   1  UNL1       -0.3133
      2 C         138.5549  142.7811  162.7147 C.2     1  UNL1        0.2773
      3 N         139.3937  141.6425  162.2148 N.2     1  UNL1       -0.2161
      4 C         140.0913  141.0287  163.3924 C.3     1  UNL1        0.1721
      5 C         139.6835  141.7879  164.6201 C.3     1  UNL1        0.2392
      6 O         138.7340  142.8709  164.2013 O.2     1  UNL1       -0.4474
      7 C         140.4063  140.3668  162.0837 C.ar    1  UNL1        0.0411
      8 C         139.7811  140.8729  160.8176 C.ar    1  UNL1        0.0157
      9 C         140.0961  140.2111  159.5089 C.ar    1  UNL1        0.0505
     10 C         141.0363  139.0431  159.4663 C.ar    1  UNL1        0.0178
     11 C         141.6615  138.5370  160.7324 C.ar    1  UNL1        0.0385
     12 C         141.3465  139.1988  162.0410 C.ar    1  UNL1        0.1436
     13 O         141.9717  138.6927  163.3071 O.3     1  UNL1       -0.4524
     14 C         141.6567  139.3546  164.6158 C.ar    1  UNL1        0.1625
     15 C         142.2819  138.8485  165.8819 C.ar    1  UNL1        0.1359
     16 N         141.9669  139.5103  167.1906 N.ar    1  UNL1       -0.2409
     17 C         141.0267  140.6783  167.2333 C.ar    1  UNL1        0.0794
     18 C         140.4015  141.1844  165.9672 C.ar    1  UNL1        0.0199
     19 C         140.7165  140.5225  164.6585 C.ar    1  UNL1        0.0430
     20 H         137.6366  143.5343  160.9022 H       1  UNL1        0.1466
     21 H         137.1730  144.3974  162.2978 H       1  UNL1        0.1466
     22 C         140.7117  141.3401  168.5420 C.2     1  UNL1        0.0207
     23 C         140.6206  142.8351  168.6237 C.2     1  UNL1       -0.0239
     24 C         140.3056  143.4970  169.9324 C.3     1  UNL1        0.0579
     25 C         140.0817  142.6638  171.1594 C.3     1  UNL1        0.1473
     26 O         140.1727  141.1688  171.0777 O.3     1  UNL1       -0.3486
     27 C         140.4877  140.5070  169.7691 C.3     1  UNL1        0.1698
     28 N         139.4709  140.7172  158.2428 N.am    1  UNL1       -0.2791
     29 C         137.9908  140.5906  158.0345 C.2     1  UNL1        0.2672
     30 O         137.1359  139.9579  159.0923 O.2     1  UNL1       -0.2682
     31 H         140.0320  141.1324  157.5486 H       1  UNL1        0.1552
     32 C         137.3656  141.0967  156.7684 C.ar    1  UNL1        0.1348
     33 C         137.2558  142.5726  156.5241 C.ar    1  UNL1        0.0246
     34 C         136.6306  143.0787  155.2581 C.ar    1  UNL1        0.0147
     35 C         136.1152  142.1089  154.2363 C.ar    1  UNL1        0.0768
     36 CL        135.4900  142.6150  152.9702 Cl      1  UNL1       -0.0806
     37 C         136.2250  140.6330  154.4806 C.ar    1  UNL1        0.1103
     38 N         136.8502  140.1269  155.7467 N.ar    1  UNL1       -0.2384
@<TRIPOS>BOND
     1     1     2    1
     2     2     3    2
     3     3     4    1
     4     4     5    1
     5     5     6    1
     6     4     7    1
     7     7     8   ar
     8     8     9   ar
     9     9    28    1
    10    28    29   am
    11    29    30    2
    12    29    32    1
    13    32    33   ar
    14    33    34   ar
    15    34    35   ar
    16    35    36    1
    17    35    37   ar
    18    37    38   ar
    19     9    10   ar
    20    10    11   ar
    21    11    12   ar
    22    12    13    1
    23    13    14    1
    24    14    15   ar
    25    15    16   ar
    26    16    17   ar
    27    17    22    1
    28    22    23    2
    29    23    24    1
    30    24    25    1
    31    25    26    1
    32    26    27    1
    33    17    18   ar
    34    18    19   ar
    35     6     2    1
    36    12     7   ar
    37    19    14   ar
    38    19     4    1
    39    38    32   ar
    40    27    22    1
    41     1    20    1
    42     1    21    1
    43    28    31    1
@<TRIPOS>MOLECULE
*****
 38 43 0 0 0
SMALL
GASTEIGER

@<TRIPOS>ATOM
      1 N         140.5826  146.4059  162.2231 N.pl3   1  UNL1       -0.3133
      2 C         140.6631  145.0457  162.8505 C.2     1  UNL1        0.2773
      3 N         140.9443  143.7590  162.1328 N.2     1  UNL1       -0.2161
      4 C         140.9315  142.6515  163.1445 C.3     1  UNL1        0.1721
      5 C         140.6423  143.2539  164.4874 C.3     1  UNL1        0.2392
      6 O         140.4764  144.7336  164.3057 O.2     1  UNL1       -0.4474
      7 C         141.2107  142.1946  161.7433 C.ar    1  UNL1        0.0411
      8 C         141.2547  143.1922  160.6239 C.ar    1  UNL1        0.0157
      9 C         141.5339  142.7353  159.2227 C.ar    1  UNL1        0.0505
     10 C         141.7690  141.2809  158.9410 C.ar    1  UNL1        0.0178
     11 C         141.7249  140.2834  160.0603 C.ar    1  UNL1        0.0385
     12 C         141.4457  140.7402  161.4614 C.ar    1  UNL1        0.1436
     13 O         141.4016  139.7427  162.5808 O.3     1  UNL1       -0.4524
     14 C         141.1225  140.1996  163.9820 C.ar    1  UNL1        0.1625
     15 C         141.0784  139.2021  165.1013 C.ar    1  UNL1        0.1359
     16 N         140.7992  139.6590  166.5025 N.ar    1  UNL1       -0.2409
     17 C         140.5641  141.1134  166.7844 C.ar    1  UNL1        0.0794
     18 C         140.6082  142.1109  165.6650 C.ar    1  UNL1        0.0199
     19 C         140.8874  141.6540  164.2638 C.ar    1  UNL1        0.0430
     20 H         140.7205  146.5098  161.2539 H       1  UNL1        0.1466
     21 H         140.3918  147.1946  162.7806 H       1  UNL1        0.1466
     22 C         140.2849  141.5703  168.1856 C.2     1  UNL1        0.0207
     23 C         140.5567  142.9920  168.5791 C.2     1  UNL1       -0.0239
     24 C         140.2775  143.4489  169.9803 C.3     1  UNL1        0.0579
     25 C         139.7266  142.4840  170.9879 C.3     1  UNL1        0.1473
     26 O         139.4549  141.0623  170.5945 O.3     1  UNL1       -0.3486
     27 C         139.7340  140.6054  169.1933 C.3     1  UNL1        0.1698
     28 N         141.5780  143.7328  158.1033 N.am    1  UNL1       -0.2791
     29 C         140.3203  144.0925  157.3693 C.2     1  UNL1        0.2672
     30 O         139.0184  143.4547  157.7547 O.2     1  UNL1       -0.2682
     31 H         142.4324  144.1514  157.8504 H       1  UNL1        0.1552
     32 C         140.3644  145.0901  156.2499 C.ar    1  UNL1        0.1348
     33 C         139.7406  146.4428  156.4259 C.ar    1  UNL1        0.0246
     34 C         139.7847  147.4403  155.3065 C.ar    1  UNL1        0.0147
     35 C         140.4525  147.0851  154.0112 C.ar    1  UNL1        0.0768
     36 CL        140.4966  148.0826  152.8919 Cl      1  UNL1       -0.0806
     37 C         141.0763  145.7323  153.8353 C.ar    1  UNL1        0.1103
     38 N         141.0322  144.7348  154.9546 N.ar    1  UNL1       -0.2384
@<TRIPOS>BOND
     1     1     2    1
     2     2     3    2
     3     3     4    1
     4     4     5    1
     5     5     6    1
     6     4     7    1
     7     7     8   ar
     8     8     9   ar
     9     9    28    1
    10    28    29   am
    11    29    30    2
    12    29    32    1
    13    32    33   ar
    14    33    34   ar
    15    34    35   ar
    16    35    36    1
    17    35    37   ar
    18    37    38   ar
    19     9    10   ar
    20    10    11   ar
    21    11    12   ar
    22    12    13    1
    23    13    14    1
    24    14    15   ar
    25    15    16   ar
    26    16    17   ar
    27    17    22    1
    28    22    23    2
    29    23    24    1
    30    24    25    1
    31    25    26    1
    32    26    27    1
    33    17    18   ar
    34    18    19   ar
    35     6     2    1
    36    12     7   ar
    37    19    14   ar
    38    19     4    1
    39    38    32   ar
    40    27    22    1
    41     1    20    1
    42     1    21    1
    43    28    31    1
@<TRIPOS>MOLECULE
*****
 38 43 0 0 0
SMALL
GASTEIGER

@<TRIPOS>ATOM
      1 N         142.1009  137.2941  162.6386 N.pl3   1  UNL1       -0.3133
      2 C         141.5417  138.5945  163.1350 C.2     1  UNL1        0.2773
      3 N         140.6593  139.5278  162.3603 N.2     1  UNL1       -0.2161
      4 C         140.3389  140.7000  163.2397 C.3     1  UNL1        0.1721
      5 C         141.0233  140.4911  164.5580 C.3     1  UNL1        0.2392
      6 O         141.7667  139.1898  164.4933 O.2     1  UNL1       -0.4474
      7 C         139.7167  140.7718  161.8767 C.ar    1  UNL1        0.0411
      8 C         139.9492  139.6688  160.8871 C.ar    1  UNL1        0.0157
      9 C         139.3269  139.7406  159.5241 C.ar    1  UNL1        0.0505
     10 C         138.4722  140.9154  159.1509 C.ar    1  UNL1        0.0178
     11 C         138.2397  142.0183  160.1405 C.ar    1  UNL1        0.0385
     12 C         138.8619  141.9465  161.5034 C.ar    1  UNL1        0.1436
     13 O         138.6294  143.0495  162.4931 O.3     1  UNL1       -0.4524
     14 C         139.2516  142.9776  163.8561 C.ar    1  UNL1        0.1625
     15 C         139.0191  144.0806  164.8457 C.ar    1  UNL1        0.1359
     16 N         139.6414  144.0088  166.2087 N.ar    1  UNL1       -0.2409
     17 C         140.4961  142.8340  166.5820 C.ar    1  UNL1        0.0794
     18 C         140.7286  141.7311  165.5924 C.ar    1  UNL1        0.0199
     19 C         140.1064  141.8029  164.2294 C.ar    1  UNL1        0.0430
     20 H         141.8954  136.9862  161.7264 H       1  UNL1        0.1466
     21 H         142.6735  136.7487  163.2251 H       1  UNL1        0.1466
     22 C         141.1183  142.7622  167.9450 C.2     1  UNL1        0.0207
     23 C         142.4738  142.1439  168.1190 C.2     1  UNL1       -0.0239
     24 C         143.0960  142.0720  169.4820 C.3     1  UNL1        0.0579
     25 C         142.3627  142.6186  170.6709 C.3     1  UNL1        0.1473
     26 O         141.0073  143.2369  170.4969 O.3     1  UNL1       -0.3486
     27 C         140.3851  143.3087  169.1340 C.3     1  UNL1        0.1698
     28 N         139.5594  138.6377  158.5344 N.am    1  UNL1       -0.2791
     29 C         140.8958  138.4977  157.8676 C.2     1  UNL1        0.2672
     30 O         141.9996  139.4607  158.1904 O.2     1  UNL1       -0.2682
     31 H         138.8350  138.0057  158.3225 H       1  UNL1        0.1552
     32 C         141.1283  137.3948  156.8779 C.ar    1  UNL1        0.1348
     33 C         140.1282  137.1409  155.7892 C.ar    1  UNL1        0.0246
     34 C         140.3607  136.0380  154.7995 C.ar    1  UNL1        0.0147
     35 C         141.5933  135.1889  154.8986 C.ar    1  UNL1        0.0768
     36 CL        141.8258  134.0860  153.9090 Cl      1  UNL1       -0.0806
     37 C         142.5934  135.4428  155.9873 C.ar    1  UNL1        0.1103
     38 N         142.3609  136.5457  156.9770 N.ar    1  UNL1       -0.2384
@<TRIPOS>BOND
     1     1     2    1
     2     2     3    2
     3     3     4    1
     4     4     5    1
     5     5     6    1
     6     4     7    1
     7     7     8   ar
     8     8     9   ar
     9     9    28    1
    10    28    29   am
    11    29    30    2
    12    29    32    1
    13    32    33   ar
    14    33    34   ar
    15    34    35   ar
    16    35    36    1
    17    35    37   ar
    18    37    38   ar
    19     9    10   ar
    20    10    11   ar
    21    11    12   ar
    22    12    13    1
    23    13    14    1
    24    14    15   ar
    25    15    16   ar
    26    16    17   ar
    27    17    22    1
    28    22    23    2
    29    23    24    1
    30    24    25    1
    31    25    26    1
    32    26    27    1
    33    17    18   ar
    34    18    19   ar
    35     6     2    1
    36    12     7   ar
    37    19    14   ar
    38    19     4    1
    39    38    32   ar
    40    27    22    1
    41     1    20    1
    42     1    21    1
    43    28    31    1
