@<TRIPOS>MOLECULE
*****
 29 32 0 0 0
SMALL
GASTEIGER

@<TRIPOS>ATOM
      1 C         139.5117  141.7060  165.2249 C.ar    1  UNL1        0.0842
      2 C         139.4513  140.4409  164.4212 C.ar    1  UNL1        0.0385
      3 C         139.1049  140.4948  162.9627 C.ar    1  UNL1        0.0918
      4 N         139.0445  139.2297  162.1589 N.ar    1  UNL1       -0.2250
      5 C         138.6981  139.2836  160.7005 C.ar    1  UNL1        0.1808
      6 N         138.4122  140.6025  160.0458 N.ar    1  UNL1       -0.2761
      7 C         138.0658  140.6564  158.5873 C.3     1  UNL1        0.1351
      8 C         138.4726  141.8676  160.8495 C.ar    1  UNL1        0.2662
      9 O         138.1866  143.1865  160.1947 O.2     1  UNL1       -0.2668
     10 C         138.8190  141.8137  162.3080 C.ar    1  UNL1        0.1051
     11 C         138.8794  143.0788  163.1117 C.ar    1  UNL1        0.1345
     12 N         139.2257  143.0249  164.5701 N.ar    1  UNL1       -0.2307
     13 C         140.8972  141.4905  171.0588 C.3     1  UNL1        0.0310
     14 C         140.5508  141.5444  169.6003 C.ar    1  UNL1       -0.0218
     15 C         140.7599  142.8121  168.8261 C.ar    1  UNL1       -0.0042
     16 C         140.4135  142.8659  167.3676 C.ar    1  UNL1        0.0012
     17 C         139.8581  141.6521  166.6834 C.ar    1  UNL1        0.0177
     18 C         139.6490  140.3845  167.4576 C.ar    1  UNL1        0.0012
     19 C         139.9954  140.3306  168.9160 C.ar    1  UNL1       -0.0042
     20 N         138.5934  144.3977  162.4570 N.pl3   1  UNL1       -0.3179
     21 H         137.7136  144.5635  162.0476 H       1  UNL1        0.1482
     22 C         139.6480  145.4639  162.4259 C.3     1  UNL1        0.0895
     23 C         141.0972  145.0883  162.5189 C.3     1  UNL1        0.0353
     24 C         141.8598  145.3486  163.7841 C.3     1  UNL1        0.0045
     25 C         143.3090  144.9730  163.8771 C.3     1  UNL1        0.0172
     26 C         143.9957  144.3372  162.7049 C.3     1  UNL1        0.0686
     27 N         143.2332  144.0769  161.4396 N.3     1  UNL1       -0.2974
     28 C         141.7839  144.4525  161.3466 C.3     1  UNL1        0.0702
     29 H         143.2893  143.0739  161.2630 H       1  UNL1        0.1232
@<TRIPOS>BOND
     1    13    14    1
     2    14    15   ar
     3    15    16   ar
     4    16    17   ar
     5    17     1    1
     6     1     2   ar
     7     2     3   ar
     8     3     4   ar
     9     4     5   ar
    10     5     6   ar
    11     6     7    1
    12     6     8   ar
    13     8     9    2
    14     8    10   ar
    15    10    11   ar
    16    11    20    1
    17    20    22    1
    18    23    22    1
    19    23    24    1
    20    24    25    1
    21    25    26    1
    22    26    27    1
    23    27    28    1
    24    11    12   ar
    25    17    18   ar
    26    18    19   ar
    27    19    14   ar
    28    12     1   ar
    29    10     3   ar
    30    28    23    1
    31    20    21    1
    32    27    29    1
@<TRIPOS>MOLECULE
*****
 29 32 0 0 0
SMALL
GASTEIGER

@<TRIPOS>ATOM
      1 C         140.1318  142.3549  165.0413 C.ar    1  UNL1        0.0842
      2 C         139.3661  141.6888  163.9368 C.ar    1  UNL1        0.0385
      3 C         139.4328  142.2362  162.5419 C.ar    1  UNL1        0.0918
      4 N         138.6670  141.5700  161.4374 N.ar    1  UNL1       -0.2250
      5 C         138.7337  142.1174  160.0425 C.ar    1  UNL1        0.1808
      6 N         139.5661  143.3310  159.7520 N.ar    1  UNL1       -0.2761
      7 C         139.6328  143.8784  158.3570 C.3     1  UNL1        0.1351
      8 C         140.3319  143.9971  160.8565 C.ar    1  UNL1        0.2662
      9 O         141.1643  145.2107  160.5660 O.2     1  UNL1       -0.2668
     10 C         140.2652  143.4497  162.2515 C.ar    1  UNL1        0.1051
     11 C         141.0309  144.1158  163.3559 C.ar    1  UNL1        0.1345
     12 N         140.9642  143.5684  164.7508 N.ar    1  UNL1       -0.2307
     13 C         139.8650  140.1652  170.6212 C.3     1  UNL1        0.0310
     14 C         139.9317  140.7127  169.2262 C.ar    1  UNL1       -0.0218
     15 C         140.4989  142.0799  168.9834 C.ar    1  UNL1       -0.0042
     16 C         140.5656  142.6273  167.5884 C.ar    1  UNL1        0.0012
     17 C         140.0651  141.8075  166.4363 C.ar    1  UNL1        0.0177
     18 C         139.4979  140.4402  166.6791 C.ar    1  UNL1        0.0012
     19 C         139.4312  139.8928  168.0741 C.ar    1  UNL1       -0.0042
     20 N         141.8634  145.3294  163.0655 N.pl3   1  UNL1       -0.3179
     21 H         141.4494  146.1242  162.6578 H       1  UNL1        0.1482
     22 C         143.3264  145.3319  163.3960 C.3     1  UNL1        0.0895
     23 C         144.1113  144.0551  163.3355 C.3     1  UNL1        0.0353
     24 C         144.4385  143.3152  164.5986 C.3     1  UNL1        0.0045
     25 C         145.2234  142.0384  164.5380 C.3     1  UNL1        0.0172
     26 C         145.6810  141.5014  163.2143 C.3     1  UNL1        0.0686
     27 N         145.3537  142.2412  161.9511 N.3     1  UNL1       -0.2974
     28 C         144.5689  143.5181  162.0117 C.3     1  UNL1        0.0702
     29 H         144.8249  141.5982  161.3618 H       1  UNL1        0.1232
@<TRIPOS>BOND
     1    13    14    1
     2    14    15   ar
     3    15    16   ar
     4    16    17   ar
     5    17     1    1
     6     1     2   ar
     7     2     3   ar
     8     3     4   ar
     9     4     5   ar
    10     5     6   ar
    11     6     7    1
    12     6     8   ar
    13     8     9    2
    14     8    10   ar
    15    10    11   ar
    16    11    20    1
    17    20    22    1
    18    23    22    1
    19    23    24    1
    20    24    25    1
    21    25    26    1
    22    26    27    1
    23    27    28    1
    24    11    12   ar
    25    17    18   ar
    26    18    19   ar
    27    19    14   ar
    28    12     1   ar
    29    10     3   ar
    30    28    23    1
    31    20    21    1
    32    27    29    1
@<TRIPOS>MOLECULE
*****
 29 32 0 0 0
SMALL
GASTEIGER

@<TRIPOS>ATOM
      1 C         141.7091  139.5170  165.3556 C.ar    1  UNL1        0.0842
      2 C         140.6666  139.1114  164.3564 C.ar    1  UNL1        0.0385
      3 C         141.0348  138.9523  162.9110 C.ar    1  UNL1        0.0918
      4 N         139.9923  138.5466  161.9117 N.ar    1  UNL1       -0.2250
      5 C         140.3605  138.3875  160.4663 C.ar    1  UNL1        0.1808
      6 N         141.7713  138.6341  160.0203 N.ar    1  UNL1       -0.2761
      7 C         142.1395  138.4749  158.5748 C.3     1  UNL1        0.1351
      8 C         142.8138  139.0397  161.0195 C.ar    1  UNL1        0.2662
      9 O         144.2246  139.2862  160.5735 O.2     1  UNL1       -0.2668
     10 C         142.4456  139.1988  162.4650 C.ar    1  UNL1        0.1051
     11 C         143.4881  139.6044  163.4642 C.ar    1  UNL1        0.1345
     12 N         143.1198  139.7635  164.9096 N.ar    1  UNL1       -0.2307
     13 C         140.2361  140.1534  171.1371 C.3     1  UNL1        0.0310
     14 C         140.6044  139.9943  169.6918 C.ar    1  UNL1       -0.0218
     15 C         142.0230  139.6941  169.3079 C.ar    1  UNL1       -0.0042
     16 C         142.3912  139.5350  167.8625 C.ar    1  UNL1        0.0012
     17 C         141.3408  139.6761  166.8011 C.ar    1  UNL1        0.0177
     18 C         139.9222  139.9763  167.1849 C.ar    1  UNL1        0.0012
     19 C         139.5540  140.1354  168.6303 C.ar    1  UNL1       -0.0042
     20 N         144.8988  139.8509  163.0182 N.pl3   1  UNL1       -0.3179
     21 H         145.3424  139.2133  162.4132 H       1  UNL1        0.1482
     22 C         145.6339  141.0689  163.4938 C.3     1  UNL1        0.0895
     23 C         144.9556  142.4067  163.4815 C.3     1  UNL1        0.0353
     24 C         144.6629  143.1111  164.7731 C.3     1  UNL1        0.0045
     25 C         143.9846  144.4489  164.7608 C.3     1  UNL1        0.0172
     26 C         143.5990  145.0823  163.4569 C.3     1  UNL1        0.0686
     27 N         143.8916  144.3779  162.1653 N.3     1  UNL1       -0.2974
     28 C         144.5699  143.0401  162.1776 C.3     1  UNL1        0.0702
     29 H         144.4824  145.0026  161.6165 H       1  UNL1        0.1232
@<TRIPOS>BOND
     1    13    14    1
     2    14    15   ar
     3    15    16   ar
     4    16    17   ar
     5    17     1    1
     6     1     2   ar
     7     2     3   ar
     8     3     4   ar
     9     4     5   ar
    10     5     6   ar
    11     6     7    1
    12     6     8   ar
    13     8     9    2
    14     8    10   ar
    15    10    11   ar
    16    11    20    1
    17    20    22    1
    18    23    22    1
    19    23    24    1
    20    24    25    1
    21    25    26    1
    22    26    27    1
    23    27    28    1
    24    11    12   ar
    25    17    18   ar
    26    18    19   ar
    27    19    14   ar
    28    12     1   ar
    29    10     3   ar
    30    28    23    1
    31    20    21    1
    32    27    29    1
@<TRIPOS>MOLECULE
*****
 29 32 0 0 0
SMALL
GASTEIGER

@<TRIPOS>ATOM
      1 C         141.2573  139.3951  165.2928 C.ar    1  UNL1        0.0842
      2 C         142.5511  139.0116  164.6378 C.ar    1  UNL1        0.0385
      3 C         142.5867  138.7058  163.1698 C.ar    1  UNL1        0.0918
      4 N         143.8806  138.3223  162.5147 N.ar    1  UNL1       -0.2250
      5 C         143.9162  138.0164  161.0467 C.ar    1  UNL1        0.1808
      6 N         142.6580  138.0940  160.2336 N.ar    1  UNL1       -0.2761
      7 C         142.6937  137.7881  158.7655 C.3     1  UNL1        0.1351
      8 C         141.3642  138.4774  160.8886 C.ar    1  UNL1        0.2662
      9 O         140.1061  138.5550  160.0756 O.2     1  UNL1       -0.2668
     10 C         141.3286  138.7833  162.3567 C.ar    1  UNL1        0.1051
     11 C         140.0348  139.1668  163.0117 C.ar    1  UNL1        0.1345
     12 N         139.9992  139.4727  164.4797 N.ar    1  UNL1       -0.2307
     13 C         141.1148  140.6187  171.1650 C.3     1  UNL1        0.0310
     14 C         141.1504  140.3128  169.6970 C.ar    1  UNL1       -0.0218
     15 C         139.9126  140.4784  168.8661 C.ar    1  UNL1       -0.0042
     16 C         139.9482  140.1725  167.3980 C.ar    1  UNL1        0.0012
     17 C         141.2217  139.7010  166.7609 C.ar    1  UNL1        0.0177
     18 C         142.4595  139.5354  167.5917 C.ar    1  UNL1        0.0012
     19 C         142.4239  139.8413  169.0597 C.ar    1  UNL1       -0.0042
     20 N         138.7766  139.2444  162.1987 N.pl3   1  UNL1       -0.3179
     21 H         138.7010  138.7360  161.3590 H       1  UNL1        0.1482
     22 C         137.6337  140.0965  162.6650 C.3     1  UNL1        0.0895
     23 C         137.8112  141.5796  162.8025 C.3     1  UNL1        0.0353
     24 C         137.7202  142.2238  164.1540 C.3     1  UNL1        0.0045
     25 C         137.8977  143.7069  164.2914 C.3     1  UNL1        0.0172
     26 C         138.1663  144.5458  163.0774 C.3     1  UNL1        0.0686
     27 N         138.2574  143.9016  161.7257 N.3     1  UNL1       -0.2974
     28 C         138.0798  142.4185  161.5883 C.3     1  UNL1        0.0702
     29 H         139.1817  144.1231  161.3557 H       1  UNL1        0.1232
@<TRIPOS>BOND
     1    13    14    1
     2    14    15   ar
     3    15    16   ar
     4    16    17   ar
     5    17     1    1
     6     1     2   ar
     7     2     3   ar
     8     3     4   ar
     9     4     5   ar
    10     5     6   ar
    11     6     7    1
    12     6     8   ar
    13     8     9    2
    14     8    10   ar
    15    10    11   ar
    16    11    20    1
    17    20    22    1
    18    23    22    1
    19    23    24    1
    20    24    25    1
    21    25    26    1
    22    26    27    1
    23    27    28    1
    24    11    12   ar
    25    17    18   ar
    26    18    19   ar
    27    19    14   ar
    28    12     1   ar
    29    10     3   ar
    30    28    23    1
    31    20    21    1
    32    27    29    1
@<TRIPOS>MOLECULE
*****
 29 32 0 0 0
SMALL
GASTEIGER

@<TRIPOS>ATOM
      1 C         139.6454  141.8668  164.9168 C.ar    1  UNL1        0.0842
      2 C         140.4022  142.9111  164.1510 C.ar    1  UNL1        0.0385
      3 C         140.1834  143.0646  162.6751 C.ar    1  UNL1        0.0918
      4 N         140.9402  144.1089  161.9091 N.ar    1  UNL1       -0.2250
      5 C         140.7214  144.2624  160.4332 C.ar    1  UNL1        0.1808
      6 N         139.7456  143.3715  159.7231 N.ar    1  UNL1       -0.2761
      7 C         139.5267  143.5250  158.2470 C.3     1  UNL1        0.1351
      8 C         138.9887  142.3272  160.4889 C.ar    1  UNL1        0.2662
      9 O         138.0130  141.4363  159.7788 O.2     1  UNL1       -0.2668
     10 C         139.2076  142.1737  161.9649 C.ar    1  UNL1        0.1051
     11 C         138.4508  141.1294  162.7308 C.ar    1  UNL1        0.1345
     12 N         138.6696  140.9760  164.2067 N.ar    1  UNL1       -0.2307
     13 C         140.5208  141.2529  170.8208 C.3     1  UNL1        0.0310
     14 C         140.3020  141.4064  169.3449 C.ar    1  UNL1       -0.0218
     15 C         140.6011  142.7144  168.6744 C.ar    1  UNL1       -0.0042
     16 C         140.3822  142.8679  167.1983 C.ar    1  UNL1        0.0012
     17 C         139.8643  141.7134  166.3929 C.ar    1  UNL1        0.0177
     18 C         139.5651  140.4053  167.0634 C.ar    1  UNL1        0.0012
     19 C         139.7840  140.2518  168.5394 C.ar    1  UNL1       -0.0042
     20 N         137.4750  140.2385  162.0206 N.pl3   1  UNL1       -0.3179
     21 H         136.6449  140.6153  161.6489 H       1  UNL1        0.1482
     22 C         137.7641  138.7737  161.8769 C.3     1  UNL1        0.0895
     23 C         138.9497  138.1715  162.5709 C.3     1  UNL1        0.0353
     24 C         138.8772  137.8463  164.0334 C.3     1  UNL1        0.0045
     25 C         140.0628  137.2441  164.7275 C.3     1  UNL1        0.0172
     26 C         141.3209  136.9672  163.9590 C.3     1  UNL1        0.0686
     27 N         141.3934  137.2925  162.4965 N.3     1  UNL1       -0.2974
     28 C         140.2078  137.8947  161.8024 C.3     1  UNL1        0.0702
     29 H         141.6074  136.4212  162.0113 H       1  UNL1        0.1232
@<TRIPOS>BOND
     1    13    14    1
     2    14    15   ar
     3    15    16   ar
     4    16    17   ar
     5    17     1    1
     6     1     2   ar
     7     2     3   ar
     8     3     4   ar
     9     4     5   ar
    10     5     6   ar
    11     6     7    1
    12     6     8   ar
    13     8     9    2
    14     8    10   ar
    15    10    11   ar
    16    11    20    1
    17    20    22    1
    18    23    22    1
    19    23    24    1
    20    24    25    1
    21    25    26    1
    22    26    27    1
    23    27    28    1
    24    11    12   ar
    25    17    18   ar
    26    18    19   ar
    27    19    14   ar
    28    12     1   ar
    29    10     3   ar
    30    28    23    1
    31    20    21    1
    32    27    29    1
@<TRIPOS>MOLECULE
*****
 29 32 0 0 0
SMALL
GASTEIGER

@<TRIPOS>ATOM
      1 C         143.0114  141.5906  164.8770 C.ar    1  UNL1        0.0842
      2 C         143.2859  140.5272  163.8554 C.ar    1  UNL1        0.0385
      3 C         143.3477  140.8838  162.3997 C.ar    1  UNL1        0.0918
      4 N         143.6223  139.8204  161.3780 N.ar    1  UNL1       -0.2250
      5 C         143.6841  140.1770  159.9223 C.ar    1  UNL1        0.1808
      6 N         143.4713  141.5970  159.4883 N.ar    1  UNL1       -0.2761
      7 C         143.5331  141.9535  158.0326 C.3     1  UNL1        0.1351
      8 C         143.1967  142.6603  160.5099 C.ar    1  UNL1        0.2662
      9 O         142.9839  144.0803  160.0759 O.2     1  UNL1       -0.2668
     10 C         143.1349  142.3038  161.9657 C.ar    1  UNL1        0.1051
     11 C         142.8604  143.3672  162.9873 C.ar    1  UNL1        0.1345
     12 N         142.7986  143.0106  164.4430 N.ar    1  UNL1       -0.2307
     13 C         142.7642  140.1642  170.6998 C.3     1  UNL1        0.0310
     14 C         142.8260  140.5208  169.2441 C.ar    1  UNL1       -0.0218
     15 C         143.0645  141.9426  168.8297 C.ar    1  UNL1       -0.0042
     16 C         143.1263  142.2992  167.3740 C.ar    1  UNL1        0.0012
     17 C         142.9496  141.2340  166.3327 C.ar    1  UNL1        0.0177
     18 C         142.7111  139.8123  166.7472 C.ar    1  UNL1        0.0012
     19 C         142.6493  139.4557  168.2028 C.ar    1  UNL1       -0.0042
     20 N         142.6476  144.7871  162.5533 N.pl3   1  UNL1       -0.3179
     21 H         143.2837  145.2133  161.9344 H       1  UNL1        0.1482
     22 C         141.4657  145.5579  163.0623 C.3     1  UNL1        0.0895
     23 C         140.1266  144.8911  163.1728 C.3     1  UNL1        0.0353
     24 C         139.4771  144.7310  164.5154 C.3     1  UNL1        0.0045
     25 C         138.1380  144.0641  164.6259 C.3     1  UNL1        0.0172
     26 C         137.4485  143.5574  163.3940 C.3     1  UNL1        0.0686
     27 N         138.0980  143.7175  162.0514 N.3     1  UNL1       -0.2974
     28 C         139.4371  144.3843  161.9408 C.3     1  UNL1        0.0702
     29 H         137.4522  144.2563  161.4742 H       1  UNL1        0.1232
@<TRIPOS>BOND
     1    13    14    1
     2    14    15   ar
     3    15    16   ar
     4    16    17   ar
     5    17     1    1
     6     1     2   ar
     7     2     3   ar
     8     3     4   ar
     9     4     5   ar
    10     5     6   ar
    11     6     7    1
    12     6     8   ar
    13     8     9    2
    14     8    10   ar
    15    10    11   ar
    16    11    20    1
    17    20    22    1
    18    23    22    1
    19    23    24    1
    20    24    25    1
    21    25    26    1
    22    26    27    1
    23    27    28    1
    24    11    12   ar
    25    17    18   ar
    26    18    19   ar
    27    19    14   ar
    28    12     1   ar
    29    10     3   ar
    30    28    23    1
    31    20    21    1
    32    27    29    1
@<TRIPOS>MOLECULE
*****
 29 32 0 0 0
SMALL
GASTEIGER

@<TRIPOS>ATOM
      1 C         142.2498  142.8221  165.2475 C.ar    1  UNL1        0.0842
      2 C         143.1397  141.9541  164.4082 C.ar    1  UNL1        0.0385
      3 C         143.2888  142.2295  162.9413 C.ar    1  UNL1        0.0918
      4 N         144.1788  141.3615  162.1018 N.ar    1  UNL1       -0.2250
      5 C         144.3280  141.6369  160.6349 C.ar    1  UNL1        0.1808
      6 N         143.5872  142.7803  160.0074 N.ar    1  UNL1       -0.2761
      7 C         143.7363  143.0557  158.5404 C.3     1  UNL1        0.1351
      8 C         142.6972  143.6483  160.8467 C.ar    1  UNL1        0.2662
      9 O         141.9564  144.7917  160.2192 O.2     1  UNL1       -0.2668
     10 C         142.5480  143.3729  162.3137 C.ar    1  UNL1        0.1051
     11 C         141.6581  144.2409  163.1531 C.ar    1  UNL1        0.1345
     12 N         141.5090  143.9655  164.6200 N.ar    1  UNL1       -0.2307
     13 C         141.6532  141.7206  171.1153 C.3     1  UNL1        0.0310
     14 C         141.8023  141.9960  169.6484 C.ar    1  UNL1       -0.0218
     15 C         140.5847  142.1905  168.7942 C.ar    1  UNL1       -0.0042
     16 C         140.7339  142.4658  167.3272 C.ar    1  UNL1        0.0012
     17 C         142.1006  142.5467  166.7145 C.ar    1  UNL1        0.0177
     18 C         143.3182  142.3522  167.5687 C.ar    1  UNL1        0.0012
     19 C         143.1691  142.0769  169.0356 C.ar    1  UNL1       -0.0042
     20 N         140.9173  145.3843  162.5255 N.pl3   1  UNL1       -0.3179
     21 H         141.4109  146.1724  162.2022 H       1  UNL1        0.1482
     22 C         139.4245  145.3270  162.3905 C.3     1  UNL1        0.0895
     23 C         138.7039  144.0250  162.5788 C.3     1  UNL1        0.0353
     24 C         138.6933  143.0075  161.4767 C.3     1  UNL1        0.0045
     25 C         137.9726  141.7055  161.6650 C.3     1  UNL1        0.0172
     26 C         137.2626  141.4209  162.9553 C.3     1  UNL1        0.0686
     27 N         137.2731  142.4385  164.0574 N.3     1  UNL1       -0.2974
     28 C         137.9938  143.7405  163.8691 C.3     1  UNL1        0.0702
     29 H         137.6895  141.9865  164.8715 H       1  UNL1        0.1232
@<TRIPOS>BOND
     1    13    14    1
     2    14    15   ar
     3    15    16   ar
     4    16    17   ar
     5    17     1    1
     6     1     2   ar
     7     2     3   ar
     8     3     4   ar
     9     4     5   ar
    10     5     6   ar
    11     6     7    1
    12     6     8   ar
    13     8     9    2
    14     8    10   ar
    15    10    11   ar
    16    11    20    1
    17    20    22    1
    18    23    22    1
    19    23    24    1
    20    24    25    1
    21    25    26    1
    22    26    27    1
    23    27    28    1
    24    11    12   ar
    25    17    18   ar
    26    18    19   ar
    27    19    14   ar
    28    12     1   ar
    29    10     3   ar
    30    28    23    1
    31    20    21    1
    32    27    29    1
@<TRIPOS>MOLECULE
*****
 29 32 0 0 0
SMALL
GASTEIGER

@<TRIPOS>ATOM
      1 C         141.9170  142.8479  165.4344 C.ar    1  UNL1        0.0842
      2 C         140.8513  143.7152  164.8328 C.ar    1  UNL1        0.0385
      3 C         140.9416  144.1240  163.3924 C.ar    1  UNL1        0.0918
      4 N         139.8759  144.9913  162.7906 N.ar    1  UNL1       -0.2250
      5 C         139.9662  145.4001  161.3503 C.ar    1  UNL1        0.1808
      6 N         141.1222  144.9416  160.5116 N.ar    1  UNL1       -0.2761
      7 C         141.2125  145.3504  159.0712 C.3     1  UNL1        0.1351
      8 C         142.1879  144.0743  161.1133 C.ar    1  UNL1        0.2662
      9 O         143.3439  143.6158  160.2746 O.2     1  UNL1       -0.2668
     10 C         142.0976  143.6655  162.5537 C.ar    1  UNL1        0.1051
     11 C         143.1633  142.7982  163.1554 C.ar    1  UNL1        0.1345
     12 N         143.0730  142.3894  164.5957 N.ar    1  UNL1       -0.2307
     13 C         141.5558  141.2126  171.1960 C.3     1  UNL1        0.0310
     14 C         141.6461  141.6214  169.7557 C.ar    1  UNL1       -0.0218
     15 C         142.9808  141.6736  169.0731 C.ar    1  UNL1       -0.0042
     16 C         143.0711  142.0824  167.6327 C.ar    1  UNL1        0.0012
     17 C         141.8267  142.4390  166.8749 C.ar    1  UNL1        0.0177
     18 C         140.4920  142.3868  167.5574 C.ar    1  UNL1        0.0012
     19 C         140.4017  141.9780  168.9978 C.ar    1  UNL1       -0.0042
     20 N         144.3193  142.3397  162.3167 N.pl3   1  UNL1       -0.3179
     21 H         144.7638  142.9697  161.7045 H       1  UNL1        0.1482
     22 C         144.7982  140.9213  162.4107 C.3     1  UNL1        0.0895
     23 C         144.1168  139.8455  161.6180 C.3     1  UNL1        0.0353
     24 C         143.8063  140.0656  160.1671 C.3     1  UNL1        0.0045
     25 C         143.1249  138.9899  159.3743 C.3     1  UNL1        0.0172
     26 C         142.7540  137.6940  160.0325 C.3     1  UNL1        0.0686
     27 N         143.0644  137.4739  161.4834 N.3     1  UNL1       -0.2974
     28 C         143.7458  138.5497  162.2762 C.3     1  UNL1        0.0702
     29 H         143.6605  136.6478  161.5350 H       1  UNL1        0.1232
@<TRIPOS>BOND
     1    13    14    1
     2    14    15   ar
     3    15    16   ar
     4    16    17   ar
     5    17     1    1
     6     1     2   ar
     7     2     3   ar
     8     3     4   ar
     9     4     5   ar
    10     5     6   ar
    11     6     7    1
    12     6     8   ar
    13     8     9    2
    14     8    10   ar
    15    10    11   ar
    16    11    20    1
    17    20    22    1
    18    23    22    1
    19    23    24    1
    20    24    25    1
    21    25    26    1
    22    26    27    1
    23    27    28    1
    24    11    12   ar
    25    17    18   ar
    26    18    19   ar
    27    19    14   ar
    28    12     1   ar
    29    10     3   ar
    30    28    23    1
    31    20    21    1
    32    27    29    1
@<TRIPOS>MOLECULE
*****
 29 32 0 0 0
SMALL
GASTEIGER

@<TRIPOS>ATOM
      1 C         140.6031  139.8171  165.1498 C.ar    1  UNL1        0.0842
      2 C         139.5829  140.6311  164.4106 C.ar    1  UNL1        0.0385
      3 C         139.4301  140.4740  162.9267 C.ar    1  UNL1        0.0918
      4 N         138.4099  141.2881  162.1874 N.ar    1  UNL1       -0.2250
      5 C         138.2571  141.1310  160.7036 C.ar    1  UNL1        0.1808
      6 N         139.1245  140.1598  159.9589 N.ar    1  UNL1       -0.2761
      7 C         138.9717  140.0028  158.4750 C.3     1  UNL1        0.1351
      8 C         140.1447  139.3458  160.6981 C.ar    1  UNL1        0.2662
      9 O         141.0121  138.3747  159.9535 O.2     1  UNL1       -0.2668
     10 C         140.2975  139.5029  162.1821 C.ar    1  UNL1        0.1051
     11 C         141.3177  138.6889  162.9213 C.ar    1  UNL1        0.1345
     12 N         141.4705  138.8460  164.4052 N.ar    1  UNL1       -0.2307
     13 C         141.2145  140.4453  171.0855 C.3     1  UNL1        0.0310
     14 C         141.0616  140.2883  169.6016 C.ar    1  UNL1       -0.0218
     15 C         139.6936  140.2648  168.9869 C.ar    1  UNL1       -0.0042
     16 C         139.5407  140.1077  167.5029 C.ar    1  UNL1        0.0012
     17 C         140.7559  139.9741  166.6338 C.ar    1  UNL1        0.0177
     18 C         142.1240  139.9976  167.2485 C.ar    1  UNL1        0.0012
     19 C         142.2768  140.1547  168.7324 C.ar    1  UNL1       -0.0042
     20 N         142.1851  137.7177  162.1767 N.pl3   1  UNL1       -0.3179
     21 H         141.7910  136.9040  161.7872 H       1  UNL1        0.1482
     22 C         143.6531  137.9865  162.0254 C.3     1  UNL1        0.0895
     23 C         144.1992  139.3530  162.3156 C.3     1  UNL1        0.0353
     24 C         144.8395  139.6388  163.6416 C.3     1  UNL1        0.0045
     25 C         145.3856  141.0053  163.9318 C.3     1  UNL1        0.0172
     26 C         145.2915  142.0862  162.8961 C.3     1  UNL1        0.0686
     27 N         144.6512  141.8005  161.5700 N.3     1  UNL1       -0.2974
     28 C         144.1050  140.4339  161.2797 C.3     1  UNL1        0.0702
     29 H         145.3533  141.9947  160.8560 H       1  UNL1        0.1232
@<TRIPOS>BOND
     1    13    14    1
     2    14    15   ar
     3    15    16   ar
     4    16    17   ar
     5    17     1    1
     6     1     2   ar
     7     2     3   ar
     8     3     4   ar
     9     4     5   ar
    10     5     6   ar
    11     6     7    1
    12     6     8   ar
    13     8     9    2
    14     8    10   ar
    15    10    11   ar
    16    11    20    1
    17    20    22    1
    18    23    22    1
    19    23    24    1
    20    24    25    1
    21    25    26    1
    22    26    27    1
    23    27    28    1
    24    11    12   ar
    25    17    18   ar
    26    18    19   ar
    27    19    14   ar
    28    12     1   ar
    29    10     3   ar
    30    28    23    1
    31    20    21    1
    32    27    29    1
