@<TRIPOS>MOLECULE
*****
 21 23 0 0 0
SMALL
GASTEIGER

@<TRIPOS>ATOM
      1 C         137.9234  140.5144  163.1836 C.3     1  UNL1        0.0766
      2 C         138.3470  139.1664  163.6869 C.3     1  UNL1        0.0209
      3 C         139.1852  139.0579  164.9262 C.3     1  UNL1        0.0104
      4 C         139.5998  140.2974  165.6621 C.3     1  UNL1        0.0444
      5 C         139.1762  141.6455  165.1588 C.ar    1  UNL1       -0.0211
      6 C         139.5908  142.8851  165.8947 C.ar    1  UNL1       -0.0042
      7 C         139.1672  144.2331  165.3914 C.ar    1  UNL1       -0.0003
      8 C         138.3290  144.3416  164.1522 C.ar    1  UNL1       -0.0003
      9 C         137.9144  143.1020  163.4162 C.ar    1  UNL1       -0.0033
     10 C         138.3380  141.7540  163.9195 C.ar    1  UNL1       -0.0117
     11 C         140.4379  140.1889  166.9013 C.ar    1  UNL1       -0.0175
     12 C         141.9335  140.1493  166.7941 C.ar    1  UNL1       -0.0030
     13 C         142.7717  140.0409  168.0334 C.ar    1  UNL1        0.0119
     14 C         142.1143  139.9720  169.3798 C.ar    1  UNL1        0.0682
     15 CL        142.9524  139.8635  170.6190 Cl      1  UNL1       -0.0814
     16 C         140.6186  140.0115  169.4871 C.ar    1  UNL1        0.0679
     17 CL        139.9611  139.9426  170.8335 Cl      1  UNL1       -0.0814
     18 C         139.7804  140.1200  168.2478 C.ar    1  UNL1        0.0083
     19 C         137.4940  139.8976  160.6966 C.3     1  UNL1        0.0861
     20 N         137.0853  140.6229  161.9444 N.3     1  UNL1       -0.2940
     21 H         136.1537  140.2867  162.1886 H       1  UNL1        0.1235
@<TRIPOS>BOND
     1    19    20    1
     2     1    20    1
     3     1     2    1
     4     2     3    1
     5     3     4    1
     6     4    11    1
     7    11    12   ar
     8    12    13   ar
     9    13    14   ar
    10    14    15    1
    11    14    16   ar
    12    16    17    1
    13    16    18   ar
    14     4     5    1
    15     5     6   ar
    16     6     7   ar
    17     7     8   ar
    18     8     9   ar
    19     9    10   ar
    20    10     1    1
    21    18    11   ar
    22    10     5   ar
    23    20    21    1
@<TRIPOS>MOLECULE
*****
 21 23 0 0 0
SMALL
GASTEIGER

@<TRIPOS>ATOM
      1 C         140.5932  145.0799  163.5032 C.3     1  UNL1        0.0766
      2 C         139.2792  144.9393  164.2128 C.3     1  UNL1        0.0209
      3 C         139.1622  144.0327  165.4021 C.3     1  UNL1        0.0104
      4 C         140.3593  143.2666  165.8818 C.3     1  UNL1        0.0444
      5 C         141.6734  143.4071  165.1721 C.ar    1  UNL1       -0.0211
      6 C         142.8704  142.6410  165.6518 C.ar    1  UNL1       -0.0042
      7 C         144.1844  142.7816  164.9422 C.ar    1  UNL1       -0.0003
      8 C         144.3014  143.6882  163.7529 C.ar    1  UNL1       -0.0003
      9 C         143.1043  144.4543  163.2733 C.ar    1  UNL1       -0.0033
     10 C         141.7903  144.3138  163.9829 C.ar    1  UNL1       -0.0117
     11 C         140.2423  142.3600  167.0710 C.ar    1  UNL1       -0.0175
     12 C         139.8489  140.9247  166.8841 C.ar    1  UNL1       -0.0030
     13 C         139.7319  140.0180  168.0733 C.ar    1  UNL1        0.0119
     14 C         140.0084  140.5467  169.4495 C.ar    1  UNL1        0.0682
     15 CL        139.8915  139.6401  170.6388 Cl      1  UNL1       -0.0814
     16 C         140.4019  141.9821  169.6365 C.ar    1  UNL1        0.0679
     17 CL        140.6784  142.5108  171.0127 Cl      1  UNL1       -0.0814
     18 C         140.5188  142.8888  168.4473 C.ar    1  UNL1        0.0083
     19 C         140.3356  145.4868  160.9502 C.3     1  UNL1        0.0861
     20 N         140.7101  145.9865  162.3140 N.3     1  UNL1       -0.2940
     21 H         140.1206  146.7972  162.5026 H       1  UNL1        0.1235
@<TRIPOS>BOND
     1    19    20    1
     2     1    20    1
     3     1     2    1
     4     2     3    1
     5     3     4    1
     6     4    11    1
     7    11    12   ar
     8    12    13   ar
     9    13    14   ar
    10    14    15    1
    11    14    16   ar
    12    16    17    1
    13    16    18   ar
    14     4     5    1
    15     5     6   ar
    16     6     7   ar
    17     7     8   ar
    18     8     9   ar
    19     9    10   ar
    20    10     1    1
    21    18    11   ar
    22    10     5   ar
    23    20    21    1
@<TRIPOS>MOLECULE
*****
 21 23 0 0 0
SMALL
GASTEIGER

@<TRIPOS>ATOM
      1 C         143.5259  143.4315  163.7683 C.3     1  UNL1        0.0766
      2 C         144.1054  142.4409  164.7341 C.3     1  UNL1        0.0209
      3 C         143.2591  141.8926  165.8445 C.3     1  UNL1        0.0104
      4 C         141.8331  142.3349  165.9892 C.3     1  UNL1        0.0444
      5 C         141.2535  143.3256  165.0234 C.ar    1  UNL1       -0.0211
      6 C         139.8275  143.7679  165.1680 C.ar    1  UNL1       -0.0042
      7 C         139.2479  144.7585  164.2023 C.ar    1  UNL1       -0.0003
      8 C         140.0943  145.3068  163.0919 C.ar    1  UNL1       -0.0003
      9 C         141.5203  144.8645  162.9472 C.ar    1  UNL1       -0.0033
     10 C         142.0998  143.8738  163.9130 C.ar    1  UNL1       -0.0117
     11 C         140.9867  141.7866  167.0996 C.ar    1  UNL1       -0.0175
     12 C         140.2867  140.4709  166.9295 C.ar    1  UNL1       -0.0030
     13 C         139.4403  139.9226  168.0399 C.ar    1  UNL1        0.0119
     14 C         139.2940  140.6900  169.3204 C.ar    1  UNL1        0.0682
     15 CL        138.4476  140.1417  170.4308 Cl      1  UNL1       -0.0814
     16 C         139.9940  142.0057  169.4905 C.ar    1  UNL1        0.0679
     17 CL        139.8477  142.7731  170.7710 Cl      1  UNL1       -0.0814
     18 C         140.8404  142.5540  168.3801 C.ar    1  UNL1        0.0083
     19 C         144.5799  143.1782  161.4072 C.3     1  UNL1        0.0861
     20 N         144.3723  143.9798  162.6579 N.3     1  UNL1       -0.2940
     21 H         143.9495  144.8637  162.3744 H       1  UNL1        0.1235
@<TRIPOS>BOND
     1    19    20    1
     2     1    20    1
     3     1     2    1
     4     2     3    1
     5     3     4    1
     6     4    11    1
     7    11    12   ar
     8    12    13   ar
     9    13    14   ar
    10    14    15    1
    11    14    16   ar
    12    16    17    1
    13    16    18   ar
    14     4     5    1
    15     5     6   ar
    16     6     7   ar
    17     7     8   ar
    18     8     9   ar
    19     9    10   ar
    20    10     1    1
    21    18    11   ar
    22    10     5   ar
    23    20    21    1
@<TRIPOS>MOLECULE
*****
 21 23 0 0 0
SMALL
GASTEIGER

@<TRIPOS>ATOM
      1 C         138.7672  138.4444  162.8808 C.3     1  UNL1        0.0766
      2 C         139.4554  137.5143  163.8354 C.3     1  UNL1        0.0209
      3 C         139.8401  137.9937  165.2036 C.3     1  UNL1        0.0104
      4 C         139.5368  139.4032  165.6173 C.3     1  UNL1        0.0444
      5 C         138.8486  140.3334  164.6627 C.ar    1  UNL1       -0.0211
      6 C         138.5452  141.7429  165.0763 C.ar    1  UNL1       -0.0042
      7 C         137.8571  142.6731  164.1217 C.ar    1  UNL1       -0.0003
      8 C         137.4723  142.1936  162.7535 C.ar    1  UNL1       -0.0003
      9 C         137.7757  140.7841  162.3398 C.ar    1  UNL1       -0.0033
     10 C         138.4638  139.8540  163.2944 C.ar    1  UNL1       -0.0117
     11 C         139.9215  139.8826  166.9855 C.ar    1  UNL1       -0.0175
     12 C         138.9393  139.7925  168.1156 C.ar    1  UNL1       -0.0030
     13 C         139.3241  140.2719  169.4838 C.ar    1  UNL1        0.0119
     14 C         140.6911  140.8415  169.7220 C.ar    1  UNL1        0.0682
     15 CL        141.0759  141.3209  171.0903 Cl      1  UNL1       -0.0814
     16 C         141.6734  140.9316  168.5920 C.ar    1  UNL1        0.0679
     17 CL        143.0404  141.5012  168.8302 Cl      1  UNL1       -0.0814
     18 C         141.2886  140.4522  167.2237 C.ar    1  UNL1        0.0083
     19 C         139.3007  138.1995  160.3499 C.3     1  UNL1        0.0861
     20 N         138.3824  137.9650  161.5125 N.3     1  UNL1       -0.2940
     21 H         138.2463  136.9565  161.5814 H       1  UNL1        0.1235
@<TRIPOS>BOND
     1    19    20    1
     2     1    20    1
     3     1     2    1
     4     2     3    1
     5     3     4    1
     6     4    11    1
     7    11    12   ar
     8    12    13   ar
     9    13    14   ar
    10    14    15    1
    11    14    16   ar
    12    16    17    1
    13    16    18   ar
    14     4     5    1
    15     5     6   ar
    16     6     7   ar
    17     7     8   ar
    18     8     9   ar
    19     9    10   ar
    20    10     1    1
    21    18    11   ar
    22    10     5   ar
    23    20    21    1
@<TRIPOS>MOLECULE
*****
 21 23 0 0 0
SMALL
GASTEIGER

@<TRIPOS>ATOM
      1 C         142.5402  144.0474  162.5498 C.3     1  UNL1        0.0766
      2 C         143.7595  143.2559  162.9197 C.3     1  UNL1        0.0209
      3 C         143.8006  142.5042  164.2171 C.3     1  UNL1        0.0104
      4 C         142.6225  142.5441  165.1446 C.3     1  UNL1        0.0444
      5 C         141.4031  143.3356  164.7748 C.ar    1  UNL1       -0.0211
      6 C         140.2250  143.3755  165.7024 C.ar    1  UNL1       -0.0042
      7 C         139.0058  144.1670  165.3325 C.ar    1  UNL1       -0.0003
      8 C         138.9646  144.9187  164.0351 C.ar    1  UNL1       -0.0003
      9 C         140.1427  144.8789  163.1075 C.ar    1  UNL1       -0.0033
     10 C         141.3620  144.0873  163.4774 C.ar    1  UNL1       -0.0117
     11 C         142.6636  141.7924  166.4421 C.ar    1  UNL1       -0.0175
     12 C         142.2324  140.3566  166.4910 C.ar    1  UNL1       -0.0030
     13 C         142.2735  139.6049  167.7884 C.ar    1  UNL1        0.0119
     14 C         142.7459  140.2890  169.0369 C.ar    1  UNL1        0.0682
     15 CL        142.7870  139.5373  170.3343 Cl      1  UNL1       -0.0814
     16 C         143.1771  141.7249  168.9880 C.ar    1  UNL1        0.0679
     17 CL        143.6495  142.4090  170.2365 Cl      1  UNL1       -0.0814
     18 C         143.1360  142.4766  167.6906 C.ar    1  UNL1        0.0083
     19 C         141.9304  144.1485  160.0264 C.3     1  UNL1        0.0861
     20 N         142.4991  144.7991  161.2524 N.3     1  UNL1       -0.2940
     21 H         141.9515  145.6435  161.4185 H       1  UNL1        0.1235
@<TRIPOS>BOND
     1    19    20    1
     2     1    20    1
     3     1     2    1
     4     2     3    1
     5     3     4    1
     6     4    11    1
     7    11    12   ar
     8    12    13   ar
     9    13    14   ar
    10    14    15    1
    11    14    16   ar
    12    16    17    1
    13    16    18   ar
    14     4     5    1
    15     5     6   ar
    16     6     7   ar
    17     7     8   ar
    18     8     9   ar
    19     9    10   ar
    20    10     1    1
    21    18    11   ar
    22    10     5   ar
    23    20    21    1
@<TRIPOS>MOLECULE
*****
 21 23 0 0 0
SMALL
GASTEIGER

@<TRIPOS>ATOM
      1 C         143.7223  139.0458  162.4989 C.3     1  UNL1        0.0766
      2 C         142.7906  138.0032  163.0420 C.3     1  UNL1        0.0209
      3 C         142.1453  138.1987  164.3818 C.3     1  UNL1        0.0104
      4 C         142.4316  139.4369  165.1786 C.3     1  UNL1        0.0444
      5 C         143.3633  140.4796  164.6356 C.ar    1  UNL1       -0.0211
      6 C         143.6496  141.7177  165.4324 C.ar    1  UNL1       -0.0042
      7 C         144.5812  142.7603  164.8893 C.ar    1  UNL1       -0.0003
      8 C         145.2266  142.5648  163.5495 C.ar    1  UNL1       -0.0003
      9 C         144.9403  141.3266  162.7527 C.ar    1  UNL1       -0.0033
     10 C         144.0086  140.2840  163.2957 C.ar    1  UNL1       -0.0117
     11 C         141.7862  139.6325  166.5185 C.ar    1  UNL1       -0.0175
     12 C         140.3317  139.9885  166.6056 C.ar    1  UNL1       -0.0030
     13 C         139.6863  140.1840  167.9455 C.ar    1  UNL1        0.0119
     14 C         140.4954  140.0236  169.1982 C.ar    1  UNL1        0.0682
     15 CL        139.8501  140.2192  170.5381 Cl      1  UNL1       -0.0814
     16 C         141.9500  139.6676  169.1112 C.ar    1  UNL1        0.0679
     17 CL        142.7592  139.5072  170.3640 Cl      1  UNL1       -0.0814
     18 C         142.5954  139.4720  167.7713 C.ar    1  UNL1        0.0083
     19 C         143.6275  139.2223  159.9086 C.3     1  UNL1        0.0861
     20 N         144.3677  138.8502  161.1590 N.3     1  UNL1       -0.2940
     21 H         145.2292  139.3962  161.1647 H       1  UNL1        0.1235
@<TRIPOS>BOND
     1    19    20    1
     2     1    20    1
     3     1     2    1
     4     2     3    1
     5     3     4    1
     6     4    11    1
     7    11    12   ar
     8    12    13   ar
     9    13    14   ar
    10    14    15    1
    11    14    16   ar
    12    16    17    1
    13    16    18   ar
    14     4     5    1
    15     5     6   ar
    16     6     7   ar
    17     7     8   ar
    18     8     9   ar
    19     9    10   ar
    20    10     1    1
    21    18    11   ar
    22    10     5   ar
    23    20    21    1
@<TRIPOS>MOLECULE
*****
 21 23 0 0 0
SMALL
GASTEIGER

@<TRIPOS>ATOM
      1 C         138.4393  139.3078  166.9558 C.3     1  UNL1        0.0766
      2 C         138.5815  139.3800  165.4643 C.3     1  UNL1        0.0209
      3 C         139.5138  140.3801  164.8473 C.3     1  UNL1        0.0104
      4 C         140.3039  141.3079  165.7218 C.3     1  UNL1        0.0444
      5 C         140.1618  141.2358  167.2134 C.ar    1  UNL1       -0.0211
      6 C         140.9519  142.1636  168.0878 C.ar    1  UNL1       -0.0042
      7 C         140.8097  142.0914  169.5793 C.ar    1  UNL1       -0.0003
      8 C         139.8774  141.0913  170.1963 C.ar    1  UNL1       -0.0003
      9 C         139.0873  140.1635  169.3218 C.ar    1  UNL1       -0.0033
     10 C         139.2295  140.2357  167.8304 C.ar    1  UNL1       -0.0117
     11 C         141.2362  142.3080  165.1048 C.ar    1  UNL1       -0.0175
     12 C         140.7201  143.6495  164.6759 C.ar    1  UNL1       -0.0030
     13 C         141.6524  144.6495  164.0589 C.ar    1  UNL1        0.0119
     14 C         143.1009  144.3081  163.8708 C.ar    1  UNL1        0.0682
     15 CL        144.0332  145.3082  163.2538 Cl      1  UNL1       -0.0814
     16 C         143.6171  142.9666  164.2997 C.ar    1  UNL1        0.0679
     17 CL        145.0655  142.6251  164.1116 Cl      1  UNL1       -0.0814
     18 C         142.6847  141.9665  164.9167 C.ar    1  UNL1        0.0083
     19 C         137.3256  136.9607  166.9385 C.3     1  UNL1        0.0861
     20 N         137.5070  138.3078  167.5728 N.3     1  UNL1       -0.2940
     21 H         137.8386  138.1434  168.5233 H       1  UNL1        0.1235
@<TRIPOS>BOND
     1    19    20    1
     2     1    20    1
     3     1     2    1
     4     2     3    1
     5     3     4    1
     6     4    11    1
     7    11    12   ar
     8    12    13   ar
     9    13    14   ar
    10    14    15    1
    11    14    16   ar
    12    16    17    1
    13    16    18   ar
    14     4     5    1
    15     5     6   ar
    16     6     7   ar
    17     7     8   ar
    18     8     9   ar
    19     9    10   ar
    20    10     1    1
    21    18    11   ar
    22    10     5   ar
    23    20    21    1
@<TRIPOS>MOLECULE
*****
 21 23 0 0 0
SMALL
GASTEIGER

@<TRIPOS>ATOM
      1 C         139.8254  140.7356  168.4980 C.3     1  UNL1        0.0766
      2 C         140.3591  142.1326  168.6142 C.3     1  UNL1        0.0209
      3 C         140.4295  143.0119  167.4010 C.3     1  UNL1        0.0104
      4 C         139.9662  142.4943  166.0716 C.3     1  UNL1        0.0444
      5 C         139.4325  141.0972  165.9553 C.ar    1  UNL1       -0.0211
      6 C         138.9691  140.5795  164.6259 C.ar    1  UNL1       -0.0042
      7 C         138.4354  139.1825  164.5098 C.ar    1  UNL1       -0.0003
      8 C         138.3651  138.3032  165.7229 C.ar    1  UNL1       -0.0003
      9 C         138.8284  138.8209  167.0523 C.ar    1  UNL1       -0.0033
     10 C         139.3621  140.2179  167.1685 C.ar    1  UNL1       -0.0117
     11 C         140.0365  143.3736  164.8584 C.ar    1  UNL1       -0.0175
     12 C         138.8258  144.1414  164.4174 C.ar    1  UNL1       -0.0030
     13 C         138.8962  145.0208  163.2042 C.ar    1  UNL1        0.0119
     14 C         140.1773  145.1322  162.4320 C.ar    1  UNL1        0.0682
     15 CL        140.2477  146.0116  161.2188 Cl      1  UNL1       -0.0814
     16 C         141.3881  144.3644  162.8730 C.ar    1  UNL1        0.0679
     17 CL        142.6692  144.4758  162.1008 Cl      1  UNL1       -0.0814
     18 C         141.3177  143.4850  164.0862 C.ar    1  UNL1        0.0083
     19 C         140.5387  140.2100  170.9403 C.3     1  UNL1        0.0861
     20 N         139.7551  139.8563  169.7112 N.3     1  UNL1       -0.2940
     21 H         138.7744  139.8155  169.9888 H       1  UNL1        0.1235
@<TRIPOS>BOND
     1    19    20    1
     2     1    20    1
     3     1     2    1
     4     2     3    1
     5     3     4    1
     6     4    11    1
     7    11    12   ar
     8    12    13   ar
     9    13    14   ar
    10    14    15    1
    11    14    16   ar
    12    16    17    1
    13    16    18   ar
    14     4     5    1
    15     5     6   ar
    16     6     7   ar
    17     7     8   ar
    18     8     9   ar
    19     9    10   ar
    20    10     1    1
    21    18    11   ar
    22    10     5   ar
    23    20    21    1
@<TRIPOS>MOLECULE
*****
 21 23 0 0 0
SMALL
GASTEIGER

@<TRIPOS>ATOM
      1 C         144.0099  139.5451  163.2035 C.3     1  UNL1        0.0766
      2 C         143.4349  138.7741  164.3545 C.3     1  UNL1        0.0209
      3 C         142.8219  139.5026  165.5136 C.3     1  UNL1        0.0104
      4 C         142.7839  141.0021  165.5217 C.3     1  UNL1        0.0444
      5 C         143.3589  141.7731  164.3705 C.ar    1  UNL1       -0.0211
      6 C         143.3208  143.2726  164.3786 C.ar    1  UNL1       -0.0042
      7 C         143.8958  144.0435  163.2275 C.ar    1  UNL1       -0.0003
      8 C         144.5088  143.3150  162.0684 C.ar    1  UNL1       -0.0003
      9 C         144.5468  141.8156  162.0604 C.ar    1  UNL1       -0.0033
     10 C         143.9719  141.0446  163.2114 C.ar    1  UNL1       -0.0117
     11 C         142.1709  141.7306  166.6807 C.ar    1  UNL1       -0.0175
     12 C         140.7795  142.2799  166.5702 C.ar    1  UNL1       -0.0030
     13 C         140.1665  143.0085  167.7293 C.ar    1  UNL1        0.0119
     14 C         140.9449  143.1876  168.9989 C.ar    1  UNL1        0.0682
     15 CL        140.3319  143.9161  170.1580 Cl      1  UNL1       -0.0814
     16 C         142.3363  142.6383  169.1095 C.ar    1  UNL1        0.0679
     17 CL        143.1147  142.8174  170.3791 Cl      1  UNL1       -0.0814
     18 C         142.9493  141.9098  167.9504 C.ar    1  UNL1        0.0083
     19 C         143.7745  137.9285  161.1832 C.3     1  UNL1        0.0861
     20 N         144.6229  138.8165  162.0444 N.3     1  UNL1       -0.2940
     21 H         145.0249  139.5251  161.4306 H       1  UNL1        0.1235
@<TRIPOS>BOND
     1    19    20    1
     2     1    20    1
     3     1     2    1
     4     2     3    1
     5     3     4    1
     6     4    11    1
     7    11    12   ar
     8    12    13   ar
     9    13    14   ar
    10    14    15    1
    11    14    16   ar
    12    16    17    1
    13    16    18   ar
    14     4     5    1
    15     5     6   ar
    16     6     7   ar
    17     7     8   ar
    18     8     9   ar
    19     9    10   ar
    20    10     1    1
    21    18    11   ar
    22    10     5   ar
    23    20    21    1
