@<TRIPOS>MOLECULE
*****
 33 36 0 0 0
SMALL
GASTEIGER

@<TRIPOS>ATOM
      1 N         137.7562  138.4494  167.3454 N.pl3   1  UNL1       -0.3410
      2 C         138.6443  139.2643  166.4527 C.ar    1  UNL1        0.1508
      3 N         138.4946  139.1757  164.9627 N.ar    1  UNL1       -0.2128
      4 C         139.3828  139.9906  164.0699 C.ar    1  UNL1        0.1525
      5 C         140.4207  140.8941  164.6670 C.ar    1  UNL1        0.1337
      6 N         140.5704  140.9827  166.1569 N.ar    1  UNL1       -0.2316
      7 C         139.6822  140.1678  167.0497 C.ar    1  UNL1        0.1420
      8 H         137.0750  137.8564  166.9536 H       1  UNL1        0.1438
      9 H         137.8544  138.5076  168.3233 H       1  UNL1        0.1438
     10 N         139.2331  139.9020  162.5800 N.pl3   1  UNL1       -0.2920
     11 C         140.2832  139.2126  161.7604 C.3     1  UNL1        0.0923
     12 C         140.1335  139.1240  160.2706 C.3     1  UNL1        0.0253
     13 C         138.9336  139.7249  159.6003 C.3     1  UNL1        0.0461
     14 C         137.8834  140.4143  160.4199 C.3     1  UNL1        0.0253
     15 C         138.0332  140.5029  161.9098 C.3     1  UNL1        0.0923
     16 C         137.7946  140.2755  158.7944 C.3     1  UNL1        0.1435
     17 O         138.0536  139.9611  157.3507 O.3     1  UNL1       -0.3523
     18 C         139.3528  139.2161  157.2644 C.3     1  UNL1        0.1576
     19 C         139.8966  139.0701  158.6547 C.3     1  UNL1        0.0832
     20 N         141.1783  138.3890  159.0331 N.3     1  UNL1       -0.3201
     21 H         141.3027  138.4362  160.0444 H       1  UNL1        0.1189
     22 H         141.9599  138.8550  158.5723 H       1  UNL1        0.1189
     23 S         139.8319  140.2564  168.5396 S.3     1  UNL1       -0.0643
     24 C         140.6220  141.3766  169.1486 C.ar    1  UNL1        0.0458
     25 C         139.9550  142.6847  169.4552 C.ar    1  UNL1        0.0281
     26 C         140.7450  143.8048  170.0643 C.ar    1  UNL1        0.1009
     27 N         142.2021  143.6170  170.3668 N.ar    1  UNL1       -0.2287
     28 C         142.8691  142.3089  170.0602 C.ar    1  UNL1        0.1365
     29 N         144.3263  142.1210  170.3627 N.pl3   1  UNL1       -0.3419
     30 C         142.0791  141.1888  169.4511 C.ar    1  UNL1        0.0947
     31 CL        142.7462  139.8807  169.1446 Cl      1  UNL1       -0.0788
     32 H         144.8449  142.8562  170.7625 H       1  UNL1        0.1437
     33 H         144.7641  141.2625  170.1615 H       1  UNL1        0.1437
@<TRIPOS>BOND
     1     1     2    1
     2     2     3   ar
     3     3     4   ar
     4     4    10    1
     5    10    11    1
     6    11    12    1
     7    12    13    1
     8    13    14    1
     9    14    15    1
    10    13    16    1
    11    16    17    1
    12    17    18    1
    13    18    19    1
    14    19    20    1
    15     4     5   ar
    16     5     6   ar
    17     6     7   ar
    18     7    23    1
    19    23    24    1
    20    24    25   ar
    21    25    26   ar
    22    26    27   ar
    23    27    28   ar
    24    28    29    1
    25    28    30   ar
    26    30    31    1
    27     7     2   ar
    28    30    24   ar
    29    15    10    1
    30    19    13    1
    31     1     8    1
    32     1     9    1
    33    20    21    1
    34    20    22    1
    35    29    32    1
    36    29    33    1
@<TRIPOS>MOLECULE
*****
 33 36 0 0 0
SMALL
GASTEIGER

@<TRIPOS>ATOM
      1 N         144.1912  137.6033  167.1191 N.pl3   1  UNL1       -0.3410
      2 C         143.4545  138.6196  166.2979 C.ar    1  UNL1        0.1508
      3 N         143.6430  138.6613  164.8103 N.ar    1  UNL1       -0.2128
      4 C         142.9063  139.6775  163.9892 C.ar    1  UNL1        0.1525
      5 C         141.9810  140.6522  164.6555 C.ar    1  UNL1        0.1337
      6 N         141.7925  140.6105  166.1430 N.ar    1  UNL1       -0.2316
      7 C         142.5292  139.5942  166.9642 C.ar    1  UNL1        0.1420
      8 H         144.7985  136.9637  166.6818 H       1  UNL1        0.1438
      9 H         144.0675  137.5760  168.0954 H       1  UNL1        0.1438
     10 N         143.0948  139.7192  162.5016 N.pl3   1  UNL1       -0.2920
     11 C         143.6533  140.9497  161.8506 C.3     1  UNL1        0.0923
     12 C         143.8418  140.9913  160.3631 C.3     1  UNL1        0.0253
     13 C         143.4718  139.8025  159.5266 C.3     1  UNL1        0.0461
     14 C         142.9133  138.5720  160.1776 C.3     1  UNL1        0.0253
     15 C         142.7248  138.5303  161.6651 C.3     1  UNL1        0.0923
     16 C         143.1489  138.6969  158.5656 C.3     1  UNL1        0.1435
     17 O         143.4939  139.1681  157.1839 O.3     1  UNL1       -0.3523
     18 C         144.0299  140.5650  157.2910 C.3     1  UNL1        0.1576
     19 C         144.0163  140.9571  158.7388 C.3     1  UNL1        0.0832
     20 N         144.4678  142.2726  159.3003 N.3     1  UNL1       -0.3201
     21 H         144.3490  142.2687  160.3133 H       1  UNL1        0.1189
     22 H         143.9100  143.0245  158.8955 H       1  UNL1        0.1189
     23 S         142.3407  139.5526  168.4517 S.3     1  UNL1       -0.0643
     24 C         142.1410  140.8263  169.2184 C.ar    1  UNL1        0.0458
     25 C         143.3120  141.7166  169.5116 C.ar    1  UNL1        0.0281
     26 C         143.1123  142.9903  170.2782 C.ar    1  UNL1        0.1009
     27 N         141.7416  143.3737  170.7517 N.ar    1  UNL1       -0.2287
     28 C         140.5706  142.4834  170.4584 C.ar    1  UNL1        0.1365
     29 N         139.1998  142.8668  170.9319 N.pl3   1  UNL1       -0.3419
     30 C         140.7703  141.2097  169.6918 C.ar    1  UNL1        0.0947
     31 CL        139.5992  140.3194  169.3986 Cl      1  UNL1       -0.0788
     32 H         139.0688  143.7028  171.4351 H       1  UNL1        0.1437
     33 H         138.4313  142.2824  170.7394 H       1  UNL1        0.1437
@<TRIPOS>BOND
     1     1     2    1
     2     2     3   ar
     3     3     4   ar
     4     4    10    1
     5    10    11    1
     6    11    12    1
     7    12    13    1
     8    13    14    1
     9    14    15    1
    10    13    16    1
    11    16    17    1
    12    17    18    1
    13    18    19    1
    14    19    20    1
    15     4     5   ar
    16     5     6   ar
    17     6     7   ar
    18     7    23    1
    19    23    24    1
    20    24    25   ar
    21    25    26   ar
    22    26    27   ar
    23    27    28   ar
    24    28    29    1
    25    28    30   ar
    26    30    31    1
    27     7     2   ar
    28    30    24   ar
    29    15    10    1
    30    19    13    1
    31     1     8    1
    32     1     9    1
    33    20    21    1
    34    20    22    1
    35    29    32    1
    36    29    33    1
@<TRIPOS>MOLECULE
*****
 33 36 0 0 0
SMALL
GASTEIGER

@<TRIPOS>ATOM
      1 N         137.7585  143.6478  161.9857 N.pl3   1  UNL1       -0.3410
      2 C         138.8346  142.8047  162.6032 C.ar    1  UNL1        0.1508
      3 N         138.9140  142.6638  164.0945 N.ar    1  UNL1       -0.2128
      4 C         139.9900  141.8208  164.7120 C.ar    1  UNL1        0.1525
      5 C         140.9868  141.1187  163.8383 C.ar    1  UNL1        0.1337
      6 N         140.9075  141.2595  162.3470 N.ar    1  UNL1       -0.2316
      7 C         139.8314  142.1026  161.7295 C.ar    1  UNL1        0.1420
      8 H         137.1043  144.1086  162.5592 H       1  UNL1        0.1438
      9 H         137.7065  143.7402  161.0069 H       1  UNL1        0.1438
     10 N         140.0694  141.6799  166.2033 N.pl3   1  UNL1       -0.2920
     11 C         140.3944  142.8725  167.0531 C.3     1  UNL1        0.0923
     12 C         140.4738  142.7315  168.5443 C.3     1  UNL1        0.0253
     13 C         140.2281  141.3981  169.1858 C.3     1  UNL1        0.0461
     14 C         139.9030  140.2055  168.3360 C.3     1  UNL1        0.0253
     15 C         139.8237  140.3465  166.8448 C.3     1  UNL1        0.0923
     16 C         140.0081  140.1353  169.9650 C.3     1  UNL1        0.1435
     17 O         140.1854  140.4520  171.4205 O.3     1  UNL1       -0.3523
     18 C         140.5149  141.9105  171.5408 C.3     1  UNL1        0.1576
     19 C         140.5413  142.4951  170.1597 C.3     1  UNL1        0.0832
     20 N         140.8302  143.9257  169.8132 N.3     1  UNL1       -0.3201
     21 H         140.7820  144.0469  168.8016 H       1  UNL1        0.1189
     22 H         141.7638  144.1731  170.1412 H       1  UNL1        0.1189
     23 S         139.7521  142.2434  160.2382 S.3     1  UNL1       -0.0643
     24 C         140.6538  143.2083  159.5270 C.ar    1  UNL1        0.0458
     25 C         140.2436  144.6427  159.3711 C.ar    1  UNL1        0.0281
     26 C         141.1453  145.6076  158.6598 C.ar    1  UNL1        0.1009
     27 N         142.4572  145.1382  158.1046 N.ar    1  UNL1       -0.2287
     28 C         142.8675  143.7038  158.2605 C.ar    1  UNL1        0.1365
     29 N         144.1795  143.2343  157.7052 N.pl3   1  UNL1       -0.3419
     30 C         141.9657  142.7389  158.9717 C.ar    1  UNL1        0.0947
     31 CL        142.3760  141.3045  159.1276 Cl      1  UNL1       -0.0788
     32 H         144.7713  143.8676  157.2384 H       1  UNL1        0.1437
     33 H         144.4487  142.2929  157.8075 H       1  UNL1        0.1437
@<TRIPOS>BOND
     1     1     2    1
     2     2     3   ar
     3     3     4   ar
     4     4    10    1
     5    10    11    1
     6    11    12    1
     7    12    13    1
     8    13    14    1
     9    14    15    1
    10    13    16    1
    11    16    17    1
    12    17    18    1
    13    18    19    1
    14    19    20    1
    15     4     5   ar
    16     5     6   ar
    17     6     7   ar
    18     7    23    1
    19    23    24    1
    20    24    25   ar
    21    25    26   ar
    22    26    27   ar
    23    27    28   ar
    24    28    29    1
    25    28    30   ar
    26    30    31    1
    27     7     2   ar
    28    30    24   ar
    29    15    10    1
    30    19    13    1
    31     1     8    1
    32     1     9    1
    33    20    21    1
    34    20    22    1
    35    29    32    1
    36    29    33    1
@<TRIPOS>MOLECULE
*****
 33 36 0 0 0
SMALL
GASTEIGER

@<TRIPOS>ATOM
      1 N         144.5277  139.6927  161.7695 N.pl3   1  UNL1       -0.3410
      2 C         143.3387  139.0639  162.4333 C.ar    1  UNL1        0.1508
      3 N         142.9655  139.4570  163.8320 N.ar    1  UNL1       -0.2128
      4 C         141.7765  138.8282  164.4959 C.ar    1  UNL1        0.1525
      5 C         140.9606  137.8062  163.7611 C.ar    1  UNL1        0.1337
      6 N         141.3337  137.4130  162.3625 N.ar    1  UNL1       -0.2316
      7 C         142.5228  138.0419  161.6986 C.ar    1  UNL1        0.1420
      8 H         145.0632  140.3635  162.2518 H       1  UNL1        0.1438
      9 H         144.7726  139.4347  160.8515 H       1  UNL1        0.1438
     10 N         141.4033  139.2213  165.8946 N.pl3   1  UNL1       -0.2920
     11 C         142.4593  139.3082  166.9563 C.3     1  UNL1        0.0923
     12 C         142.0860  139.7013  168.3548 C.3     1  UNL1        0.0253
     13 C         140.6568  140.0075  168.6917 C.3     1  UNL1        0.0461
     14 C         139.6008  139.9206  167.6300 C.3     1  UNL1        0.0253
     15 C         139.9740  139.5275  166.2314 C.3     1  UNL1        0.0923
     16 C         139.2766  140.3410  169.1753 C.3     1  UNL1        0.1435
     17 O         139.3650  140.6758  170.6349 O.3     1  UNL1       -0.3523
     18 C         140.7999  140.5492  171.0533 C.3     1  UNL1        0.1576
     19 C         141.5983  140.1361  169.8525 C.3     1  UNL1        0.0832
     20 N         143.0782  139.8942  169.8182 N.3     1  UNL1       -0.3201
     21 H         143.3569  139.6248  168.8748 H       1  UNL1        0.1189
     22 H         143.3156  139.1460  170.4696 H       1  UNL1        0.1189
     23 S         142.8960  137.6487  160.3000 S.3     1  UNL1       -0.0643
     24 C         142.2421  138.3244  159.1312 C.ar    1  UNL1        0.0458
     25 C         141.5443  139.6388  159.3189 C.ar    1  UNL1        0.0281
     26 C         140.8904  140.3145  158.1502 C.ar    1  UNL1        0.1009
     27 N         140.9343  139.6756  156.7937 N.ar    1  UNL1       -0.2287
     28 C         141.6321  138.3612  156.6061 C.ar    1  UNL1        0.1365
     29 N         141.6760  137.7222  155.2496 N.pl3   1  UNL1       -0.3419
     30 C         142.2859  137.6855  157.7748 C.ar    1  UNL1        0.0947
     31 CL        142.9837  136.3710  157.5871 Cl      1  UNL1       -0.0788
     32 H         141.2468  138.1657  154.4825 H       1  UNL1        0.1437
     33 H         142.1339  136.8595  155.1264 H       1  UNL1        0.1437
@<TRIPOS>BOND
     1     1     2    1
     2     2     3   ar
     3     3     4   ar
     4     4    10    1
     5    10    11    1
     6    11    12    1
     7    12    13    1
     8    13    14    1
     9    14    15    1
    10    13    16    1
    11    16    17    1
    12    17    18    1
    13    18    19    1
    14    19    20    1
    15     4     5   ar
    16     5     6   ar
    17     6     7   ar
    18     7    23    1
    19    23    24    1
    20    24    25   ar
    21    25    26   ar
    22    26    27   ar
    23    27    28   ar
    24    28    29    1
    25    28    30   ar
    26    30    31    1
    27     7     2   ar
    28    30    24   ar
    29    15    10    1
    30    19    13    1
    31     1     8    1
    32     1     9    1
    33    20    21    1
    34    20    22    1
    35    29    32    1
    36    29    33    1
@<TRIPOS>MOLECULE
*****
 33 36 0 0 0
SMALL
GASTEIGER

@<TRIPOS>ATOM
      1 N         139.5670  138.5506  165.3369 N.pl3   1  UNL1       -0.3410
      2 C         139.9852  139.9908  165.3100 C.ar    1  UNL1        0.1508
      3 N         140.3124  140.6525  164.0041 N.ar    1  UNL1       -0.2128
      4 C         140.7307  142.0927  163.9772 C.ar    1  UNL1        0.1525
      5 C         140.8218  142.8713  165.2561 C.ar    1  UNL1        0.1337
      6 N         140.4946  142.2097  166.5619 N.ar    1  UNL1       -0.2316
      7 C         140.0763  140.7694  166.5888 C.ar    1  UNL1        0.1420
      8 H         139.5072  138.0396  164.4975 H       1  UNL1        0.1438
      9 H         139.3523  138.1163  166.1940 H       1  UNL1        0.1438
     10 N         141.0579  142.7544  162.6713 N.pl3   1  UNL1       -0.2920
     11 C         140.2498  143.9276  162.2018 C.3     1  UNL1        0.0923
     12 C         140.5770  144.5892  160.8960 C.3     1  UNL1        0.0253
     13 C         141.7123  144.0777  160.0598 C.3     1  UNL1        0.0461
     14 C         142.5205  142.9045  160.5293 C.3     1  UNL1        0.0253
     15 C         142.1933  142.2429  161.8351 C.3     1  UNL1        0.0923
     16 C         142.8125  143.6797  159.1210 C.3     1  UNL1        0.1435
     17 O         142.7769  144.6096  157.9444 O.3     1  UNL1       -0.3523
     18 C         141.6548  145.5823  158.1561 C.3     1  UNL1        0.1576
     19 C         140.9969  145.2536  159.4635 C.3     1  UNL1        0.0832
     20 N         139.8286  145.9742  160.0683 N.3     1  UNL1       -0.3201
     21 H         139.5866  145.5413  160.9597 H       1  UNL1        0.1189
     22 H         139.0304  145.9189  159.4357 H       1  UNL1        0.1189
     23 S         139.7492  140.1078  167.8946 S.3     1  UNL1       -0.0643
     24 C         140.4329  140.5532  169.1532 C.ar    1  UNL1        0.0458
     25 C         139.7666  141.5476  170.0572 C.ar    1  UNL1        0.0281
     26 C         140.4503  141.9930  171.3157 C.ar    1  UNL1        0.1009
     27 N         141.8005  141.4442  171.6704 N.ar    1  UNL1       -0.2287
     28 C         142.4668  140.4498  170.7664 C.ar    1  UNL1        0.1365
     29 N         143.8171  139.9009  171.1210 N.pl3   1  UNL1       -0.3419
     30 C         141.7831  140.0043  169.5078 C.ar    1  UNL1        0.0947
     31 CL        142.4495  139.0099  168.6039 Cl      1  UNL1       -0.0788
     32 H         144.2659  140.1932  171.9471 H       1  UNL1        0.1437
     33 H         144.2544  139.2482  170.5277 H       1  UNL1        0.1437
@<TRIPOS>BOND
     1     1     2    1
     2     2     3   ar
     3     3     4   ar
     4     4    10    1
     5    10    11    1
     6    11    12    1
     7    12    13    1
     8    13    14    1
     9    14    15    1
    10    13    16    1
    11    16    17    1
    12    17    18    1
    13    18    19    1
    14    19    20    1
    15     4     5   ar
    16     5     6   ar
    17     6     7   ar
    18     7    23    1
    19    23    24    1
    20    24    25   ar
    21    25    26   ar
    22    26    27   ar
    23    27    28   ar
    24    28    29    1
    25    28    30   ar
    26    30    31    1
    27     7     2   ar
    28    30    24   ar
    29    15    10    1
    30    19    13    1
    31     1     8    1
    32     1     9    1
    33    20    21    1
    34    20    22    1
    35    29    32    1
    36    29    33    1
@<TRIPOS>MOLECULE
*****
 33 36 0 0 0
SMALL
GASTEIGER

@<TRIPOS>ATOM
      1 N         145.3257  142.4869  162.0289 N.pl3   1  UNL1       -0.3410
      2 C         143.9239  142.5452  162.5595 C.ar    1  UNL1        0.1508
      3 N         143.6739  142.4187  164.0331 N.ar    1  UNL1       -0.2128
      4 C         142.2721  142.4770  164.5637 C.ar    1  UNL1        0.1525
      5 C         141.1203  142.6617  163.6207 C.ar    1  UNL1        0.1337
      6 N         141.3703  142.7882  162.1472 N.ar    1  UNL1       -0.2316
      7 C         142.7721  142.7299  161.6165 C.ar    1  UNL1        0.1420
      8 H         146.0817  142.3656  162.6478 H       1  UNL1        0.1438
      9 H         145.4898  142.5699  161.0617 H       1  UNL1        0.1438
     10 N         142.0221  142.3505  166.0374 N.pl3   1  UNL1       -0.2920
     11 C         143.1632  142.4645  167.0042 C.3     1  UNL1        0.0923
     12 C         142.9132  142.3381  168.4777 C.3     1  UNL1        0.0253
     13 C         141.5220  142.0976  168.9845 C.3     1  UNL1        0.0461
     14 C         140.3809  141.9836  168.0177 C.3     1  UNL1        0.0253
     15 C         140.6309  142.1100  166.5441 C.3     1  UNL1        0.0923
     16 C         140.1922  141.8577  169.6357 C.3     1  UNL1        0.1435
     17 O         140.4062  141.8006  171.1194 O.3     1  UNL1       -0.3523
     18 C         141.8682  142.0053  171.3850 C.3     1  UNL1        0.1576
     19 C         142.5578  142.1888  170.0656 C.3     1  UNL1        0.0832
     20 N         144.0255  142.4226  169.8629 N.3     1  UNL1       -0.3201
     21 H         144.2210  142.5121  168.8658 H       1  UNL1        0.1189
     22 H         144.5509  141.6353  170.2430 H       1  UNL1        0.1189
     23 S         143.0221  142.8564  160.1429 S.3     1  UNL1       -0.0643
     24 C         143.1898  141.6254  159.3023 C.ar    1  UNL1        0.0458
     25 C         142.2244  140.4858  159.4402 C.ar    1  UNL1        0.0281
     26 C         142.3921  139.2548  158.5995 C.ar    1  UNL1        0.1009
     27 N         143.5252  139.1636  157.6210 N.ar    1  UNL1       -0.2287
     28 C         144.4907  140.3032  157.4831 C.ar    1  UNL1        0.1365
     29 N         145.6239  140.2120  156.5045 N.pl3   1  UNL1       -0.3419
     30 C         144.3230  141.5342  158.3237 C.ar    1  UNL1        0.0947
     31 CL        145.2885  142.6739  158.1858 Cl      1  UNL1       -0.0788
     32 H         145.7340  139.4041  155.9528 H       1  UNL1        0.1437
     33 H         146.2576  140.9600  156.4140 H       1  UNL1        0.1437
@<TRIPOS>BOND
     1     1     2    1
     2     2     3   ar
     3     3     4   ar
     4     4    10    1
     5    10    11    1
     6    11    12    1
     7    12    13    1
     8    13    14    1
     9    14    15    1
    10    13    16    1
    11    16    17    1
    12    17    18    1
    13    18    19    1
    14    19    20    1
    15     4     5   ar
    16     5     6   ar
    17     6     7   ar
    18     7    23    1
    19    23    24    1
    20    24    25   ar
    21    25    26   ar
    22    26    27   ar
    23    27    28   ar
    24    28    29    1
    25    28    30   ar
    26    30    31    1
    27     7     2   ar
    28    30    24   ar
    29    15    10    1
    30    19    13    1
    31     1     8    1
    32     1     9    1
    33    20    21    1
    34    20    22    1
    35    29    32    1
    36    29    33    1
@<TRIPOS>MOLECULE
*****
 33 36 0 0 0
SMALL
GASTEIGER

@<TRIPOS>ATOM
      1 N         138.4712  139.0652  156.1984 N.pl3   1  UNL1       -0.3410
      2 C         139.7857  138.6340  156.7781 C.ar    1  UNL1        0.1508
      3 N         140.3882  137.3206  156.3754 N.ar    1  UNL1       -0.2128
      4 C         141.7027  136.8893  156.9551 C.ar    1  UNL1        0.1525
      5 C         142.4148  137.7714  157.9373 C.ar    1  UNL1        0.1337
      6 N         141.8123  139.0848  158.3400 N.ar    1  UNL1       -0.2316
      7 C         140.4978  139.5161  157.7603 C.ar    1  UNL1        0.1420
      8 H         138.0038  138.4862  155.5537 H       1  UNL1        0.1438
      9 H         138.0757  139.9272  156.4627 H       1  UNL1        0.1438
     10 N         142.3053  135.5759  156.5525 N.pl3   1  UNL1       -0.2920
     11 C         143.3877  134.9597  157.3882 C.3     1  UNL1        0.0923
     12 C         143.9901  133.6464  156.9856 C.3     1  UNL1        0.0253
     13 C         143.5102  132.9493  155.7472 C.3     1  UNL1        0.0461
     14 C         142.4278  133.5655  154.9114 C.3     1  UNL1        0.0253
     15 C         141.8253  134.8788  155.3140 C.3     1  UNL1        0.0923
     16 C         143.1345  132.1395  154.5417 C.3     1  UNL1        0.1435
     17 O         143.9863  130.9048  154.5288 O.3     1  UNL1       -0.3523
     18 C         144.8884  130.9515  155.7264 C.3     1  UNL1        0.1576
     19 C         144.5941  132.2150  156.4794 C.3     1  UNL1        0.0832
     20 N         145.2658  132.6653  157.7427 N.3     1  UNL1       -0.3201
     21 H         144.8720  133.5589  158.0373 H       1  UNL1        0.1189
     22 H         146.2663  132.7731  157.5760 H       1  UNL1        0.1189
     23 S         139.8953  140.8294  158.1629 S.3     1  UNL1       -0.0643
     24 C         139.0774  140.9265  159.4166 C.ar    1  UNL1        0.0458
     25 C         138.4754  139.6907  160.0169 C.ar    1  UNL1        0.0281
     26 C         137.6575  139.7878  161.2706 C.ar    1  UNL1        0.1009
     27 N         137.4416  141.1207  161.9239 N.ar    1  UNL1       -0.2287
     28 C         138.0437  142.3564  161.3236 C.ar    1  UNL1        0.1365
     29 N         137.8278  143.6894  161.9769 N.pl3   1  UNL1       -0.3419
     30 C         138.8616  142.2593  160.0699 C.ar    1  UNL1        0.0947
     31 CL        139.4636  143.4952  159.4696 Cl      1  UNL1       -0.0788
     32 H         137.2910  143.7531  162.7997 H       1  UNL1        0.1437
     33 H         138.2230  144.5004  161.5829 H       1  UNL1        0.1437
@<TRIPOS>BOND
     1     1     2    1
     2     2     3   ar
     3     3     4   ar
     4     4    10    1
     5    10    11    1
     6    11    12    1
     7    12    13    1
     8    13    14    1
     9    14    15    1
    10    13    16    1
    11    16    17    1
    12    17    18    1
    13    18    19    1
    14    19    20    1
    15     4     5   ar
    16     5     6   ar
    17     6     7   ar
    18     7    23    1
    19    23    24    1
    20    24    25   ar
    21    25    26   ar
    22    26    27   ar
    23    27    28   ar
    24    28    29    1
    25    28    30   ar
    26    30    31    1
    27     7     2   ar
    28    30    24   ar
    29    15    10    1
    30    19    13    1
    31     1     8    1
    32     1     9    1
    33    20    21    1
    34    20    22    1
    35    29    32    1
    36    29    33    1
@<TRIPOS>MOLECULE
*****
 33 36 0 0 0
SMALL
GASTEIGER

@<TRIPOS>ATOM
      1 N         142.1180  138.1326  165.0124 N.pl3   1  UNL1       -0.3410
      2 C         142.1618  139.6317  165.0359 C.ar    1  UNL1        0.1508
      3 N         141.9898  140.4072  163.7634 N.ar    1  UNL1       -0.2128
      4 C         142.0336  141.9063  163.7869 C.ar    1  UNL1        0.1525
      5 C         142.2493  142.6301  165.0829 C.ar    1  UNL1        0.1337
      6 N         142.4212  141.8548  166.3554 N.ar    1  UNL1       -0.2316
      7 C         142.3775  140.3555  166.3319 C.ar    1  UNL1        0.1420
      8 H         141.9764  137.6575  164.1618 H       1  UNL1        0.1438
      9 H         142.2309  137.6237  165.8476 H       1  UNL1        0.1438
     10 N         141.8617  142.6817  162.5144 N.pl3   1  UNL1       -0.2920
     11 C         140.8504  143.7871  162.4405 C.3     1  UNL1        0.0923
     12 C         140.6785  144.5624  161.1681 C.3     1  UNL1        0.0253
     13 C         141.5179  144.2325  159.9695 C.3     1  UNL1        0.0461
     14 C         142.5292  143.1272  160.0434 C.3     1  UNL1        0.0253
     15 C         142.7010  142.3518  161.3159 C.3     1  UNL1        0.0923
     16 C         142.2813  144.0178  158.6962 C.3     1  UNL1        0.1435
     17 O         141.7876  145.0114  157.6866 O.3     1  UNL1       -0.3523
     18 C         140.7190  145.8401  158.3360 C.3     1  UNL1        0.1576
     19 C         140.5524  145.3587  159.7468 C.3     1  UNL1        0.0832
     20 N         139.5893  145.9072  160.7576 N.3     1  UNL1       -0.3201
     21 H         139.6876  145.3945  161.6339 H       1  UNL1        0.1189
     22 H         138.6361  145.8054  160.4091 H       1  UNL1        0.1189
     23 S         142.5494  139.5802  167.6044 S.3     1  UNL1       -0.0643
     24 C         141.9125  140.0680  168.8718 C.ar    1  UNL1        0.0458
     25 C         142.7699  140.5320  170.0117 C.ar    1  UNL1        0.0281
     26 C         142.1330  141.0198  171.2792 C.ar    1  UNL1        0.1009
     27 N         140.6386  141.0437  171.4067 N.ar    1  UNL1       -0.2287
     28 C         139.7812  140.5797  170.2667 C.ar    1  UNL1        0.1365
     29 N         138.2868  140.6036  170.3942 N.pl3   1  UNL1       -0.3419
     30 C         140.4181  140.0919  168.9993 C.ar    1  UNL1        0.0947
     31 CL        139.5606  139.6279  167.8593 Cl      1  UNL1       -0.0788
     32 H         137.8687  140.9238  171.2260 H       1  UNL1        0.1437
     33 H         137.7240  140.2991  169.6460 H       1  UNL1        0.1437
@<TRIPOS>BOND
     1     1     2    1
     2     2     3   ar
     3     3     4   ar
     4     4    10    1
     5    10    11    1
     6    11    12    1
     7    12    13    1
     8    13    14    1
     9    14    15    1
    10    13    16    1
    11    16    17    1
    12    17    18    1
    13    18    19    1
    14    19    20    1
    15     4     5   ar
    16     5     6   ar
    17     6     7   ar
    18     7    23    1
    19    23    24    1
    20    24    25   ar
    21    25    26   ar
    22    26    27   ar
    23    27    28   ar
    24    28    29    1
    25    28    30   ar
    26    30    31    1
    27     7     2   ar
    28    30    24   ar
    29    15    10    1
    30    19    13    1
    31     1     8    1
    32     1     9    1
    33    20    21    1
    34    20    22    1
    35    29    32    1
    36    29    33    1
@<TRIPOS>MOLECULE
*****
 33 36 0 0 0
SMALL
GASTEIGER

@<TRIPOS>ATOM
      1 N         139.9700  139.0551  165.0653 N.pl3   1  UNL1       -0.3410
      2 C         140.8495  140.2496  164.8428 C.ar    1  UNL1        0.1508
      3 N         140.7500  141.0264  163.5635 N.ar    1  UNL1       -0.2128
      4 C         141.6295  142.2210  163.3410 C.ar    1  UNL1        0.1525
      5 C         142.6085  142.6388  164.3979 C.ar    1  UNL1        0.1337
      6 N         142.7079  141.8621  165.6773 N.ar    1  UNL1       -0.2316
      7 C         141.8284  140.6675  165.8998 C.ar    1  UNL1        0.1420
      8 H         139.3275  138.7809  164.3716 H       1  UNL1        0.1438
      9 H         140.0353  138.5453  165.9050 H       1  UNL1        0.1438
     10 N         141.5301  142.9978  162.0616 N.pl3   1  UNL1       -0.2920
     11 C         142.5935  142.8558  161.0134 C.3     1  UNL1        0.0923
     12 C         142.4941  143.6326  159.7341 C.3     1  UNL1        0.0253
     13 C         141.3311  144.5513  159.5030 C.3     1  UNL1        0.0461
     14 C         140.2676  144.6933  160.5512 C.3     1  UNL1        0.0253
     15 C         140.3671  143.9165  161.8305 C.3     1  UNL1        0.0923
     16 C         140.2326  145.5033  159.1327 C.3     1  UNL1        0.1435
     17 O         140.5353  146.0529  157.7701 O.3     1  UNL1       -0.3523
     18 C         141.8208  145.4405  157.2984 C.3     1  UNL1        0.1576
     19 C         142.3126  144.5125  158.3693 C.3     1  UNL1        0.0832
     20 N         143.5658  143.6901  158.3160 N.3     1  UNL1       -0.3201
     21 H         143.6559  143.1514  159.1775 H       1  UNL1        0.1189
     22 H         144.3726  144.3059  158.2142 H       1  UNL1        0.1189
     23 S         141.9279  139.8907  167.1791 S.3     1  UNL1       -0.0643
     24 C         141.2462  140.3938  168.4169 C.ar    1  UNL1        0.0458
     25 C         139.8034  140.0664  168.6642 C.ar    1  UNL1        0.0281
     26 C         139.1217  140.5695  169.9020 C.ar    1  UNL1        0.1009
     27 N         139.8827  141.3999  170.8925 N.ar    1  UNL1       -0.2287
     28 C         141.3255  141.7273  170.6452 C.ar    1  UNL1        0.1365
     29 N         142.0866  142.5578  171.6357 N.pl3   1  UNL1       -0.3419
     30 C         142.0072  141.2243  169.4074 C.ar    1  UNL1        0.0947
     31 CL        143.4500  141.5517  169.1601 Cl      1  UNL1       -0.0788
     32 H         141.6391  142.8880  172.4482 H       1  UNL1        0.1437
     33 H         143.0335  142.7727  171.4734 H       1  UNL1        0.1437
@<TRIPOS>BOND
     1     1     2    1
     2     2     3   ar
     3     3     4   ar
     4     4    10    1
     5    10    11    1
     6    11    12    1
     7    12    13    1
     8    13    14    1
     9    14    15    1
    10    13    16    1
    11    16    17    1
    12    17    18    1
    13    18    19    1
    14    19    20    1
    15     4     5   ar
    16     5     6   ar
    17     6     7   ar
    18     7    23    1
    19    23    24    1
    20    24    25   ar
    21    25    26   ar
    22    26    27   ar
    23    27    28   ar
    24    28    29    1
    25    28    30   ar
    26    30    31    1
    27     7     2   ar
    28    30    24   ar
    29    15    10    1
    30    19    13    1
    31     1     8    1
    32     1     9    1
    33    20    21    1
    34    20    22    1
    35    29    32    1
    36    29    33    1
