@<TRIPOS>MOLECULE
*****
 30 33 0 0 0
SMALL
GASTEIGER

@<TRIPOS>ATOM
      1 C         141.0864  141.9307  169.2791 C.ar    1  UNL1        0.1737
      2 C         141.3538  141.4334  170.6687 C.ar    1  UNL1        0.0401
      3 C         142.1425  140.1745  170.8760 C.ar    1  UNL1        0.0046
      4 C         142.6639  139.4128  169.6936 C.ar    1  UNL1        0.0217
      5 C         142.3965  139.9101  168.3040 C.ar    1  UNL1        0.1426
      6 C         141.6077  141.1690  168.0967 C.ar    1  UNL1        0.1895
      7 O         141.3403  141.6663  166.7070 O.3     1  UNL1       -0.4686
      8 C         141.8617  140.9047  165.5246 C.3     1  UNL1        0.2104
      9 C         142.6504  139.6457  165.7319 C.3     1  UNL1        0.1779
     10 C         143.1718  138.8841  164.5494 C.3     1  UNL1        0.0300
     11 S         142.9178  139.1485  167.1215 S.O2    1  UNL1        0.0138
     12 O         143.4279  138.2822  168.2349 O.2     1  UNL1       -0.1685
     13 O         143.6163  138.0859  166.3257 O.2     1  UNL1       -0.1685
     14 C         141.5943  141.4019  164.1348 C.ar    1  UNL1        0.0191
     15 C         140.3251  141.0195  163.4327 C.ar    1  UNL1        0.0023
     16 C         140.0577  141.5167  162.0430 C.ar    1  UNL1        0.0367
     17 C         141.0594  142.3964  161.3555 C.ar    1  UNL1        0.1385
     18 C         142.3285  142.7788  162.0577 C.ar    1  UNL1        0.0367
     19 C         142.5960  142.2816  163.4473 C.ar    1  UNL1        0.0023
     20 O         140.7920  142.8936  159.9658 O.3     1  UNL1       -0.4754
     21 C         140.0704  144.1924  159.7598 C.3     1  UNL1        0.2068
     22 C         140.5365  145.4298  160.4680 C.3     1  UNL1        0.0646
     23 C         139.6819  146.0520  161.5321 C.3     1  UNL1        0.0759
     24 N         139.3015  145.2591  162.7473 N.3     1  UNL1       -0.2726
     25 C         138.0154  144.5133  162.9465 C.3     1  UNL1        0.0721
     26 C         138.0595  143.8661  164.2990 C.3     1  UNL1        0.0188
     27 C         139.3729  144.2119  164.9358 C.3     1  UNL1        0.0188
     28 C         140.1405  145.0729  163.9767 C.3     1  UNL1        0.0721
     29 C         140.3948  144.3079  170.0667 C.3     1  UNL1        0.2526
     30 O         140.2976  143.1896  169.0718 O.3     1  UNL1       -0.4683
@<TRIPOS>BOND
     1    29    30    1
     2    30     1    1
     3     1     2   ar
     4     2     3   ar
     5     3     4   ar
     6     4     5   ar
     7     5     6   ar
     8     6     7    1
     9     7     8    1
    10     8    14    1
    11    14    15   ar
    12    15    16   ar
    13    16    17   ar
    14    17    20    1
    15    20    21    1
    16    21    22    1
    17    22    23    1
    18    23    24    1
    19    24    25    1
    20    25    26    1
    21    26    27    1
    22    27    28    1
    23    17    18   ar
    24    18    19   ar
    25     8     9    1
    26     9    10    1
    27     9    11    1
    28    11    12    2
    29    11    13    2
    30     6     1   ar
    31    19    14   ar
    32    11     5    1
    33    28    24    1
@<TRIPOS>MOLECULE
*****
 30 33 0 0 0
SMALL
GASTEIGER

@<TRIPOS>ATOM
      1 C         142.5233  142.1289  168.6978 C.ar    1  UNL1        0.1737
      2 C         142.4070  142.5800  170.1236 C.ar    1  UNL1        0.0401
      3 C         141.2377  142.1434  170.9554 C.ar    1  UNL1        0.0046
      4 C         140.1846  141.2556  170.3615 C.ar    1  UNL1        0.0217
      5 C         140.3008  140.8045  168.9357 C.ar    1  UNL1        0.1426
      6 C         141.4702  141.2412  168.1038 C.ar    1  UNL1        0.1895
      7 O         141.5864  140.7900  166.6780 O.3     1  UNL1       -0.4686
      8 C         140.5333  139.9023  166.0840 C.3     1  UNL1        0.2104
      9 C         139.3640  139.4656  166.9158 C.3     1  UNL1        0.1779
     10 C         138.3108  138.5778  166.3218 C.3     1  UNL1        0.0300
     11 S         139.2477  139.9167  168.3416 S.O2    1  UNL1        0.0138
     12 O         138.6996  140.0791  169.7285 O.2     1  UNL1       -0.1685
     13 O         138.0042  139.0853  168.2293 O.2     1  UNL1       -0.1685
     14 C         140.6496  139.4511  164.6581 C.ar    1  UNL1        0.0191
     15 C         140.2851  140.3864  163.5435 C.ar    1  UNL1        0.0023
     16 C         140.4013  139.9354  162.1177 C.ar    1  UNL1        0.0367
     17 C         140.8820  138.5490  161.8065 C.ar    1  UNL1        0.1385
     18 C         141.2464  137.6137  162.9211 C.ar    1  UNL1        0.0367
     19 C         141.1302  138.0648  164.3469 C.ar    1  UNL1        0.0023
     20 O         140.9982  138.0978  160.3806 O.3     1  UNL1       -0.4754
     21 C         142.1860  138.5045  159.5598 C.3     1  UNL1        0.2068
     22 C         143.5073  138.7537  160.2246 C.3     1  UNL1        0.0646
     23 C         143.9542  140.1584  160.5021 C.3     1  UNL1        0.0759
     24 N         144.5032  140.5183  161.8508 N.3     1  UNL1       -0.2726
     25 C         144.4551  139.6598  163.0800 C.3     1  UNL1        0.0721
     26 C         145.1189  140.4107  164.1961 C.3     1  UNL1        0.0188
     27 C         145.5774  141.7332  163.6566 C.3     1  UNL1        0.0188
     28 C         145.1968  141.7996  162.2072 C.3     1  UNL1        0.0721
     29 C         143.4917  142.9391  166.4272 C.3     1  UNL1        0.2526
     30 O         143.6926  142.5656  167.8660 O.3     1  UNL1       -0.4683
@<TRIPOS>BOND
     1    29    30    1
     2    30     1    1
     3     1     2   ar
     4     2     3   ar
     5     3     4   ar
     6     4     5   ar
     7     5     6   ar
     8     6     7    1
     9     7     8    1
    10     8    14    1
    11    14    15   ar
    12    15    16   ar
    13    16    17   ar
    14    17    20    1
    15    20    21    1
    16    21    22    1
    17    22    23    1
    18    23    24    1
    19    24    25    1
    20    25    26    1
    21    26    27    1
    22    27    28    1
    23    17    18   ar
    24    18    19   ar
    25     8     9    1
    26     9    10    1
    27     9    11    1
    28    11    12    2
    29    11    13    2
    30     6     1   ar
    31    19    14   ar
    32    11     5    1
    33    28    24    1
@<TRIPOS>MOLECULE
*****
 30 33 0 0 0
SMALL
GASTEIGER

@<TRIPOS>ATOM
      1 C         139.8040  138.8549  161.3101 C.ar    1  UNL1        0.1737
      2 C         139.5133  138.7914  159.8399 C.ar    1  UNL1        0.0401
      3 C         138.7882  139.9203  159.1693 C.ar    1  UNL1        0.0046
      4 C         138.3537  141.1127  159.9688 C.ar    1  UNL1        0.0217
      5 C         138.6443  141.1763  161.4390 C.ar    1  UNL1        0.1426
      6 C         139.3695  140.0474  162.1096 C.ar    1  UNL1        0.1895
      7 O         139.6601  140.1110  163.5799 O.3     1  UNL1       -0.4686
      8 C         139.2256  141.3034  164.3794 C.3     1  UNL1        0.2104
      9 C         138.5005  142.4323  163.7087 C.3     1  UNL1        0.1779
     10 C         138.0659  143.6248  164.5083 C.3     1  UNL1        0.0300
     11 S         138.2098  142.3687  162.2385 S.O2    1  UNL1        0.0138
     12 O         137.7077  142.7674  160.8824 O.2     1  UNL1       -0.1685
     13 O         137.6009  143.6997  162.5671 O.2     1  UNL1       -0.1685
     14 C         139.5162  141.3670  165.8496 C.ar    1  UNL1        0.0191
     15 C         139.1252  140.2261  166.7415 C.ar    1  UNL1        0.0023
     16 C         139.4158  140.2896  168.2116 C.ar    1  UNL1        0.0367
     17 C         140.0974  141.4941  168.7900 C.ar    1  UNL1        0.1385
     18 C         140.4885  142.6350  167.8982 C.ar    1  UNL1        0.0367
     19 C         140.1979  142.5715  166.4280 C.ar    1  UNL1        0.0023
     20 O         140.3881  141.5577  170.2602 O.3     1  UNL1       -0.4754
     21 C         141.4847  140.7178  170.8450 C.3     1  UNL1        0.2068
     22 C         142.7091  140.4125  170.0341 C.3     1  UNL1        0.0646
     23 C         142.7813  139.1470  169.2321 C.3     1  UNL1        0.0759
     24 N         143.0828  139.2056  167.7639 N.3     1  UNL1       -0.2726
     25 C         142.9524  140.4139  166.8845 C.3     1  UNL1        0.0721
     26 C         143.3566  140.0213  165.4944 C.3     1  UNL1        0.0188
     27 C         143.7370  138.5704  165.5145 C.3     1  UNL1        0.0188
     28 C         143.5677  138.0663  166.9172 C.3     1  UNL1        0.0721
     29 C         142.0055  137.8239  162.2266 C.3     1  UNL1        0.2526
     30 O         140.5291  137.7260  161.9808 O.3     1  UNL1       -0.4683
@<TRIPOS>BOND
     1    29    30    1
     2    30     1    1
     3     1     2   ar
     4     2     3   ar
     5     3     4   ar
     6     4     5   ar
     7     5     6   ar
     8     6     7    1
     9     7     8    1
    10     8    14    1
    11    14    15   ar
    12    15    16   ar
    13    16    17   ar
    14    17    20    1
    15    20    21    1
    16    21    22    1
    17    22    23    1
    18    23    24    1
    19    24    25    1
    20    25    26    1
    21    26    27    1
    22    27    28    1
    23    17    18   ar
    24    18    19   ar
    25     8     9    1
    26     9    10    1
    27     9    11    1
    28    11    12    2
    29    11    13    2
    30     6     1   ar
    31    19    14   ar
    32    11     5    1
    33    28    24    1
@<TRIPOS>MOLECULE
*****
 30 33 0 0 0
SMALL
GASTEIGER

@<TRIPOS>ATOM
      1 C         142.8857  142.1875  167.3502 C.ar    1  UNL1        0.1737
      2 C         143.4793  142.3426  168.7189 C.ar    1  UNL1        0.0401
      3 C         142.8036  141.7197  169.9044 C.ar    1  UNL1        0.0046
      4 C         141.5345  140.9415  169.7211 C.ar    1  UNL1        0.0217
      5 C         140.9409  140.7863  168.3524 C.ar    1  UNL1        0.1426
      6 C         141.6166  141.4093  167.1669 C.ar    1  UNL1        0.1895
      7 O         141.0230  141.2541  165.7980 O.3     1  UNL1       -0.4686
      8 C         139.7538  140.4759  165.6147 C.3     1  UNL1        0.2104
      9 C         139.0782  139.8529  166.8002 C.3     1  UNL1        0.1779
     10 C         137.8090  139.0747  166.6169 C.3     1  UNL1        0.0300
     11 S         139.6717  140.0081  168.1690 S.O2    1  UNL1        0.0138
     12 O         139.8454  139.8772  169.6532 O.2     1  UNL1       -0.1685
     13 O         138.4628  139.1844  168.5012 O.2     1  UNL1       -0.1685
     14 C         139.1603  140.3206  164.2459 C.ar    1  UNL1        0.0191
     15 C         138.1163  141.2855  163.7674 C.ar    1  UNL1        0.0023
     16 C         137.5227  141.1304  162.3986 C.ar    1  UNL1        0.0367
     17 C         137.9731  140.0103  161.5084 C.ar    1  UNL1        0.1385
     18 C         139.0171  139.0454  161.9870 C.ar    1  UNL1        0.0367
     19 C         139.6107  139.2006  163.3557 C.ar    1  UNL1        0.0023
     20 O         137.3795  139.8551  160.1396 O.3     1  UNL1       -0.4754
     21 C         138.1063  140.3908  158.9418 C.3     1  UNL1        0.2068
     22 C         138.3840  141.8605  158.8284 C.3     1  UNL1        0.0646
     23 C         139.7769  142.3785  159.0317 C.3     1  UNL1        0.0759
     24 N         140.2681  142.6866  160.4151 N.3     1  UNL1       -0.2726
     25 C         141.2870  141.8994  161.1847 C.3     1  UNL1        0.0721
     26 C         141.4753  142.5622  162.5170 C.3     1  UNL1        0.0188
     27 C         140.5728  143.7592  162.5709 C.3     1  UNL1        0.0188
     28 C         139.8267  143.8360  161.2718 C.3     1  UNL1        0.0721
     29 C         144.1324  141.9408  165.0841 C.3     1  UNL1        0.2526
     30 O         143.5614  142.8104  166.1647 O.3     1  UNL1       -0.4683
@<TRIPOS>BOND
     1    29    30    1
     2    30     1    1
     3     1     2   ar
     4     2     3   ar
     5     3     4   ar
     6     4     5   ar
     7     5     6   ar
     8     6     7    1
     9     7     8    1
    10     8    14    1
    11    14    15   ar
    12    15    16   ar
    13    16    17   ar
    14    17    20    1
    15    20    21    1
    16    21    22    1
    17    22    23    1
    18    23    24    1
    19    24    25    1
    20    25    26    1
    21    26    27    1
    22    27    28    1
    23    17    18   ar
    24    18    19   ar
    25     8     9    1
    26     9    10    1
    27     9    11    1
    28    11    12    2
    29    11    13    2
    30     6     1   ar
    31    19    14   ar
    32    11     5    1
    33    28    24    1
@<TRIPOS>MOLECULE
*****
 30 33 0 0 0
SMALL
GASTEIGER

@<TRIPOS>ATOM
      1 C         142.2648  141.9302  169.4239 C.ar    1  UNL1        0.1737
      2 C         141.8384  142.0469  170.8573 C.ar    1  UNL1        0.0401
      3 C         140.5671  141.3970  171.3169 C.ar    1  UNL1        0.0046
      4 C         139.7221  140.6303  170.3431 C.ar    1  UNL1        0.0217
      5 C         140.1485  140.5136  168.9098 C.ar    1  UNL1        0.1426
      6 C         141.4199  141.1635  168.4502 C.ar    1  UNL1        0.1895
      7 O         141.8462  141.0468  167.0168 O.3     1  UNL1       -0.4686
      8 C         141.0013  140.2801  166.0430 C.3     1  UNL1        0.2104
      9 C         139.7299  139.6302  166.5026 C.3     1  UNL1        0.1779
     10 C         138.8849  138.8635  165.5288 C.3     1  UNL1        0.0300
     11 S         139.3035  139.7469  167.9360 S.O2    1  UNL1        0.0138
     12 O         138.4849  139.5769  169.1814 O.2     1  UNL1       -0.1685
     13 O         138.1742  138.9212  167.3947 O.2     1  UNL1       -0.1685
     14 C         141.4277  140.1633  164.6096 C.ar    1  UNL1        0.0191
     15 C         140.8109  141.0504  163.5690 C.ar    1  UNL1        0.0023
     16 C         141.2373  140.9337  162.1357 C.ar    1  UNL1        0.0367
     17 C         142.2803  139.9299  161.7429 C.ar    1  UNL1        0.1385
     18 C         142.8970  139.0428  162.7834 C.ar    1  UNL1        0.0367
     19 C         142.4707  139.1595  164.2168 C.ar    1  UNL1        0.0023
     20 O         142.7067  139.8131  160.3094 O.3     1  UNL1       -0.4754
     21 C         142.9576  141.0498  159.4985 C.3     1  UNL1        0.2068
     22 C         144.1508  141.9100  159.7922 C.3     1  UNL1        0.0646
     23 C         144.0572  142.9958  160.8228 C.3     1  UNL1        0.0759
     24 N         144.4054  142.7049  162.2525 N.3     1  UNL1       -0.2726
     25 C         143.7869  143.3469  163.4589 C.3     1  UNL1        0.0721
     26 C         144.4325  142.7597  164.6789 C.3     1  UNL1        0.0188
     27 C         145.4502  141.7547  164.2265 C.3     1  UNL1        0.0188
     28 C         145.4334  141.7209  162.7269 C.3     1  UNL1        0.0721
     29 C         144.6308  142.8662  169.9491 C.3     1  UNL1        0.2526
     30 O         143.5362  142.5801  168.9643 O.3     1  UNL1       -0.4683
@<TRIPOS>BOND
     1    29    30    1
     2    30     1    1
     3     1     2   ar
     4     2     3   ar
     5     3     4   ar
     6     4     5   ar
     7     5     6   ar
     8     6     7    1
     9     7     8    1
    10     8    14    1
    11    14    15   ar
    12    15    16   ar
    13    16    17   ar
    14    17    20    1
    15    20    21    1
    16    21    22    1
    17    22    23    1
    18    23    24    1
    19    24    25    1
    20    25    26    1
    21    26    27    1
    22    27    28    1
    23    17    18   ar
    24    18    19   ar
    25     8     9    1
    26     9    10    1
    27     9    11    1
    28    11    12    2
    29    11    13    2
    30     6     1   ar
    31    19    14   ar
    32    11     5    1
    33    28    24    1
@<TRIPOS>MOLECULE
*****
 30 33 0 0 0
SMALL
GASTEIGER

@<TRIPOS>ATOM
      1 C         142.6328  142.0251  168.2561 C.ar    1  UNL1        0.1737
      2 C         142.8989  142.5099  169.6504 C.ar    1  UNL1        0.0401
      3 C         141.9471  142.1675  170.7580 C.ar    1  UNL1        0.0046
      4 C         140.7291  141.3404  170.4713 C.ar    1  UNL1        0.0217
      5 C         140.4629  140.8556  169.0770 C.ar    1  UNL1        0.1426
      6 C         141.4148  141.1980  167.9694 C.ar    1  UNL1        0.1895
      7 O         141.1486  140.7131  166.5751 O.3     1  UNL1       -0.4686
      8 C         139.9306  139.8860  166.2884 C.3     1  UNL1        0.2104
      9 C         138.9787  139.5436  167.3960 C.3     1  UNL1        0.1779
     10 C         137.7607  138.7164  167.1092 C.3     1  UNL1        0.0300
     11 S         139.2449  140.0284  168.7903 S.O2    1  UNL1        0.0138
     12 O         139.0665  140.2530  170.2626 O.2     1  UNL1       -0.1685
     13 O         137.9649  139.2792  169.0149 O.2     1  UNL1       -0.1685
     14 C         139.6643  139.4011  164.8940 C.ar    1  UNL1        0.0191
     15 C         138.8531  140.2391  163.9507 C.ar    1  UNL1        0.0023
     16 C         138.5869  139.7543  162.5564 C.ar    1  UNL1        0.0367
     17 C         139.1319  138.4316  162.1055 C.ar    1  UNL1        0.1385
     18 C         139.9431  137.5937  163.0488 C.ar    1  UNL1        0.0367
     19 C         140.2093  138.0785  164.4430 C.ar    1  UNL1        0.0023
     20 O         138.8657  137.9468  160.7111 O.3     1  UNL1       -0.4754
     21 C         139.7945  138.3247  159.5955 C.3     1  UNL1        0.2068
     22 C         140.2402  139.7485  159.4406 C.3     1  UNL1        0.0646
     23 C         141.6751  140.1153  159.6784 C.3     1  UNL1        0.0759
     24 N         142.3011  139.8648  161.0183 N.3     1  UNL1       -0.2726
     25 C         143.1311  138.6734  161.3949 C.3     1  UNL1        0.0721
     26 C         143.5500  138.8339  162.8263 C.3     1  UNL1        0.0188
     27 C         142.9789  140.1246  163.3344 C.3     1  UNL1        0.0188
     28 C         142.2071  140.7617  162.2170 C.3     1  UNL1        0.0721
     29 C         143.0653  142.9433  165.8645 C.3     1  UNL1        0.2526
     30 O         143.5846  142.3675  167.1485 O.3     1  UNL1       -0.4683
@<TRIPOS>BOND
     1    29    30    1
     2    30     1    1
     3     1     2   ar
     4     2     3   ar
     5     3     4   ar
     6     4     5   ar
     7     5     6   ar
     8     6     7    1
     9     7     8    1
    10     8    14    1
    11    14    15   ar
    12    15    16   ar
    13    16    17   ar
    14    17    20    1
    15    20    21    1
    16    21    22    1
    17    22    23    1
    18    23    24    1
    19    24    25    1
    20    25    26    1
    21    26    27    1
    22    27    28    1
    23    17    18   ar
    24    18    19   ar
    25     8     9    1
    26     9    10    1
    27     9    11    1
    28    11    12    2
    29    11    13    2
    30     6     1   ar
    31    19    14   ar
    32    11     5    1
    33    28    24    1
@<TRIPOS>MOLECULE
*****
 30 33 0 0 0
SMALL
GASTEIGER

@<TRIPOS>ATOM
      1 C         142.9091  143.4263  158.6650 C.ar    1  UNL1        0.1737
      2 C         142.7646  144.2073  157.3926 C.ar    1  UNL1        0.0401
      3 C         141.7568  145.3146  157.3025 C.ar    1  UNL1        0.0046
      4 C         140.8934  145.6409  158.4849 C.ar    1  UNL1        0.0217
      5 C         141.0379  144.8600  159.7573 C.ar    1  UNL1        0.1426
      6 C         142.0457  143.7526  159.8474 C.ar    1  UNL1        0.1895
      7 O         142.1902  142.9716  161.1199 O.3     1  UNL1       -0.4686
      8 C         141.3269  143.2980  162.3023 C.3     1  UNL1        0.2104
      9 C         140.3190  144.4053  162.2123 C.3     1  UNL1        0.1779
     10 C         139.4557  144.7316  163.3948 C.3     1  UNL1        0.0300
     11 S         140.1745  145.1863  160.9398 S.O2    1  UNL1        0.0138
     12 O         139.6693  146.2033  159.9598 O.2     1  UNL1       -0.1685
     13 O         139.1357  145.8658  161.7819 O.2     1  UNL1       -0.1685
     14 C         141.4713  142.5170  163.5748 C.ar    1  UNL1        0.0191
     15 C         140.6952  141.2480  163.7682 C.ar    1  UNL1        0.0023
     16 C         140.8397  140.4670  165.0407 C.ar    1  UNL1        0.0367
     17 C         141.7602  140.9550  166.1197 C.ar    1  UNL1        0.1385
     18 C         142.5363  142.2240  165.9263 C.ar    1  UNL1        0.0367
     19 C         142.3919  143.0050  164.6539 C.ar    1  UNL1        0.0023
     20 O         141.9047  140.1740  167.3923 O.3     1  UNL1       -0.4754
     21 C         142.9477  139.1014  167.4996 C.3     1  UNL1        0.2068
     22 C         143.3968  138.3663  166.2716 C.3     1  UNL1        0.0646
     23 C         144.6688  138.7635  165.5829 C.3     1  UNL1        0.0759
     24 N         144.6165  139.5407  164.3011 N.3     1  UNL1       -0.2726
     25 C         143.7816  139.2063  163.1005 C.3     1  UNL1        0.0721
     26 C         144.0390  140.2477  162.0522 C.3     1  UNL1        0.0188
     27 C         145.0330  141.2259  162.6047 C.3     1  UNL1        0.0188
     28 C         145.3899  140.7889  163.9946 C.3     1  UNL1        0.0721
     29 C         143.5315  140.9210  158.3715 C.3     1  UNL1        0.2526
     30 O         143.9169  142.3190  158.7550 O.3     1  UNL1       -0.4683
@<TRIPOS>BOND
     1    29    30    1
     2    30     1    1
     3     1     2   ar
     4     2     3   ar
     5     3     4   ar
     6     4     5   ar
     7     5     6   ar
     8     6     7    1
     9     7     8    1
    10     8    14    1
    11    14    15   ar
    12    15    16   ar
    13    16    17   ar
    14    17    20    1
    15    20    21    1
    16    21    22    1
    17    22    23    1
    18    23    24    1
    19    24    25    1
    20    25    26    1
    21    26    27    1
    22    27    28    1
    23    17    18   ar
    24    18    19   ar
    25     8     9    1
    26     9    10    1
    27     9    11    1
    28    11    12    2
    29    11    13    2
    30     6     1   ar
    31    19    14   ar
    32    11     5    1
    33    28    24    1
@<TRIPOS>MOLECULE
*****
 30 33 0 0 0
SMALL
GASTEIGER

@<TRIPOS>ATOM
      1 C         142.0252  140.7634  160.8712 C.ar    1  UNL1        0.1737
      2 C         142.0010  140.9259  159.3803 C.ar    1  UNL1        0.0401
      3 C         140.9218  141.7414  158.7321 C.ar    1  UNL1        0.0046
      4 C         139.8668  142.3945  159.5749 C.ar    1  UNL1        0.0217
      5 C         139.8910  142.2321  161.0658 C.ar    1  UNL1        0.1426
      6 C         140.9702  141.4166  161.7140 C.ar    1  UNL1        0.1895
      7 O         140.9943  141.2542  163.2050 O.3     1  UNL1       -0.4686
      8 C         139.9393  141.9073  164.0478 C.3     1  UNL1        0.2104
      9 C         138.8601  142.7229  163.3996 C.3     1  UNL1        0.1779
     10 C         137.8050  143.3760  164.2425 C.3     1  UNL1        0.0300
     11 S         138.8359  142.8853  161.9087 S.O2    1  UNL1        0.0138
     12 O         138.3917  143.3279  160.5460 O.2     1  UNL1       -0.1685
     13 O         137.6266  143.6922  162.2782 O.2     1  UNL1       -0.1685
     14 C         139.9635  141.7449  165.5388 C.ar    1  UNL1        0.0191
     15 C         140.4342  142.8727  166.4086 C.ar    1  UNL1        0.0023
     16 C         140.4584  142.7104  167.8995 C.ar    1  UNL1        0.0367
     17 C         140.0118  141.4202  168.5208 C.ar    1  UNL1        0.1385
     18 C         139.5411  140.2924  167.6510 C.ar    1  UNL1        0.0367
     19 C         139.5169  140.4547  166.1601 C.ar    1  UNL1        0.0023
     20 O         140.0360  141.2578  170.0118 O.3     1  UNL1       -0.4754
     21 C         141.0843  140.3997  170.6559 C.3     1  UNL1        0.2068
     22 C         142.4350  140.2605  170.0186 C.3     1  UNL1        0.0646
     23 C         142.7411  139.0672  169.1627 C.3     1  UNL1        0.0759
     24 N         143.0602  139.2494  167.7085 N.3     1  UNL1       -0.2726
     25 C         143.3678  138.1552  166.7295 C.3     1  UNL1        0.0721
     26 C         143.6255  138.7872  165.3938 C.3     1  UNL1        0.0188
     27 C         143.4773  140.2720  165.5472 C.3     1  UNL1        0.0188
     28 C         143.1279  140.5576  166.9778 C.3     1  UNL1        0.0721
     29 C         144.3917  140.5988  161.9306 C.3     1  UNL1        0.2526
     30 O         143.1044  139.9479  161.5194 O.3     1  UNL1       -0.4683
@<TRIPOS>BOND
     1    29    30    1
     2    30     1    1
     3     1     2   ar
     4     2     3   ar
     5     3     4   ar
     6     4     5   ar
     7     5     6   ar
     8     6     7    1
     9     7     8    1
    10     8    14    1
    11    14    15   ar
    12    15    16   ar
    13    16    17   ar
    14    17    20    1
    15    20    21    1
    16    21    22    1
    17    22    23    1
    18    23    24    1
    19    24    25    1
    20    25    26    1
    21    26    27    1
    22    27    28    1
    23    17    18   ar
    24    18    19   ar
    25     8     9    1
    26     9    10    1
    27     9    11    1
    28    11    12    2
    29    11    13    2
    30     6     1   ar
    31    19    14   ar
    32    11     5    1
    33    28    24    1
@<TRIPOS>MOLECULE
*****
 30 33 0 0 0
SMALL
GASTEIGER

@<TRIPOS>ATOM
      1 C         142.9456  142.8849  159.8148 C.ar    1  UNL1        0.1737
      2 C         143.1159  143.5516  158.4820 C.ar    1  UNL1        0.0401
      3 C         142.2140  144.6839  158.0891 C.ar    1  UNL1        0.0046
      4 C         141.1417  145.1494  159.0289 C.ar    1  UNL1        0.0217
      5 C         140.9714  144.4827  160.3617 C.ar    1  UNL1        0.1426
      6 C         141.8734  143.3504  160.7547 C.ar    1  UNL1        0.1895
      7 O         141.7030  142.6837  162.0876 O.3     1  UNL1       -0.4686
      8 C         140.6307  143.1492  163.0274 C.3     1  UNL1        0.2104
      9 C         139.7287  144.2815  162.6345 C.3     1  UNL1        0.1779
     10 C         138.6564  144.7470  163.5745 C.3     1  UNL1        0.0300
     11 S         139.8990  144.9482  161.3017 S.O2    1  UNL1        0.0138
     12 O         139.6692  145.8903  160.1572 O.2     1  UNL1       -0.1685
     13 O         138.7469  145.7409  161.8442 O.2     1  UNL1       -0.1685
     14 C         140.4604  142.4825  164.3603 C.ar    1  UNL1        0.0191
     15 C         141.0844  143.0835  165.5848 C.ar    1  UNL1        0.0023
     16 C         140.9140  142.4169  166.9176 C.ar    1  UNL1        0.0367
     17 C         140.1197  141.1491  167.0260 C.ar    1  UNL1        0.1385
     18 C         139.4957  140.5480  165.8015 C.ar    1  UNL1        0.0367
     19 C         139.6661  141.2147  164.4687 C.ar    1  UNL1        0.0023
     20 O         139.9494  140.4824  168.3589 O.3     1  UNL1       -0.4754
     21 C         141.1539  140.1276  169.1794 C.3     1  UNL1        0.2068
     22 C         142.5111  140.0895  168.5417 C.3     1  UNL1        0.0646
     23 C         142.8960  138.9343  167.6658 C.3     1  UNL1        0.0759
     24 N         142.8899  139.0896  166.1739 N.3     1  UNL1       -0.2726
     25 C         143.4822  140.2326  165.4039 C.3     1  UNL1        0.0721
     26 C         143.2487  139.9787  163.9442 C.3     1  UNL1        0.0188
     27 C         142.5121  138.6787  163.8118 C.3     1  UNL1        0.0188
     28 C         142.2903  138.1292  165.1899 C.3     1  UNL1        0.0721
     29 C         144.9190  141.9690  161.2349 C.3     1  UNL1        0.2526
     30 O         143.8476  141.7526  160.2077 O.3     1  UNL1       -0.4683
@<TRIPOS>BOND
     1    29    30    1
     2    30     1    1
     3     1     2   ar
     4     2     3   ar
     5     3     4   ar
     6     4     5   ar
     7     5     6   ar
     8     6     7    1
     9     7     8    1
    10     8    14    1
    11    14    15   ar
    12    15    16   ar
    13    16    17   ar
    14    17    20    1
    15    20    21    1
    16    21    22    1
    17    22    23    1
    18    23    24    1
    19    24    25    1
    20    25    26    1
    21    26    27    1
    22    27    28    1
    23    17    18   ar
    24    18    19   ar
    25     8     9    1
    26     9    10    1
    27     9    11    1
    28    11    12    2
    29    11    13    2
    30     6     1   ar
    31    19    14   ar
    32    11     5    1
    33    28    24    1
