@<TRIPOS>MOLECULE
*****
 34 37 0 0 0
SMALL
GASTEIGER

@<TRIPOS>ATOM
      1 C         141.7685  145.2921  163.0156 C.3     1  UNL1        0.0898
      2 C         141.2493  144.1569  163.8473 C.3     1  UNL1        0.0224
      3 C         141.9336  142.8227  163.8061 C.3     1  UNL1        0.0191
      4 C         141.4143  141.6876  164.6379 C.3     1  UNL1        0.0722
      5 N         140.2108  141.8866  165.5108 N.3     1  UNL1       -0.2724
      6 C         139.5265  143.2208  165.5520 C.3     1  UNL1        0.0722
      7 C         140.0458  144.3560  164.7202 C.3     1  UNL1        0.0191
      8 C         139.6916  140.7514  166.3425 C.3     1  UNL1        0.0768
      9 C         140.5168  140.2107  167.4724 C.3     1  UNL1        0.0437
     10 C         141.2265  141.1518  168.4001 C.ar    1  UNL1       -0.0207
     11 C         140.4658  142.2526  169.0779 C.ar    1  UNL1       -0.0030
     12 C         141.1755  143.1938  170.0056 C.ar    1  UNL1        0.0138
     13 C         142.6458  143.0340  170.2555 C.ar    1  UNL1        0.0415
     14 N         143.3556  143.9752  171.1832 N.pl3   1  UNL1       -0.3570
     15 C         143.4065  141.9331  169.5776 C.ar    1  UNL1        0.0138
     16 C         142.6969  140.9920  168.6499 C.ar    1  UNL1       -0.0030
     17 H         142.8563  144.6977  171.6281 H       1  UNL1        0.1424
     18 H         144.3206  143.8703  171.3472 H       1  UNL1        0.1424
     19 C         140.5961  145.5064  160.7069 C.2     1  UNL1        0.2654
     20 O         139.3410  145.9665  161.3871 O.2     1  UNL1       -0.2684
     21 N         141.8100  145.1692  161.5212 N.am    1  UNL1       -0.2996
     22 H         142.6339  144.8671  161.0748 H       1  UNL1        0.1498
     23 N         140.1179  145.6621  156.8582 N.ar    1  UNL1       -0.2527
     24 N         139.7177  146.0682  158.2456 N.ar    1  UNL1       -0.1647
     25 C         140.6376  145.3834  159.2125 C.ar    1  UNL1        0.1554
     26 C         141.6063  144.5541  158.4227 C.ar    1  UNL1        0.0411
     27 C         142.7394  143.6644  158.8404 C.ar    1  UNL1        0.0032
     28 C         143.5512  142.9469  157.8031 C.ar    1  UNL1        0.0001
     29 C         143.2300  143.1191  156.3480 C.ar    1  UNL1        0.0015
     30 C         142.0970  144.0088  155.9303 C.ar    1  UNL1        0.0188
     31 C         141.2851  144.7263  156.9676 C.ar    1  UNL1        0.0794
     32 C         140.1374  147.1372  154.7196 C.3     1  UNL1        0.0263
     33 C         139.4654  146.1126  155.5849 C.3     1  UNL1        0.1053
     34 C         138.1411  145.5387  155.1769 C.3     1  UNL1        0.0263
@<TRIPOS>BOND
     1    32    33    1
     2    33    34    1
     3    33    23    1
     4    23    24   ar
     5    24    25   ar
     6    25    19    1
     7    19    20    2
     8    19    21   am
     9    21     1    1
    10     1     2    1
    11     2     3    1
    12     3     4    1
    13     4     5    1
    14     5     8    1
    15     8     9    1
    16     9    10    1
    17    10    11   ar
    18    11    12   ar
    19    12    13   ar
    20    13    14    1
    21    13    15   ar
    22    15    16   ar
    23     5     6    1
    24     6     7    1
    25    25    26   ar
    26    26    27   ar
    27    27    28   ar
    28    28    29   ar
    29    29    30   ar
    30    30    31   ar
    31    31    23   ar
    32     7     2    1
    33    31    26   ar
    34    16    10   ar
    35    21    22    1
    36    14    17    1
    37    14    18    1
@<TRIPOS>MOLECULE
*****
 34 37 0 0 0
SMALL
GASTEIGER

@<TRIPOS>ATOM
      1 C         143.6184  137.9246  161.6591 C.3     1  UNL1        0.0898
      2 C         142.7692  138.3080  162.8346 C.3     1  UNL1        0.0224
      3 C         143.2935  139.2738  163.8555 C.3     1  UNL1        0.0191
      4 C         142.4443  139.6571  165.0310 C.3     1  UNL1        0.0722
      5 N         141.0707  139.0746  165.1857 N.3     1  UNL1       -0.2724
      6 C         140.5463  138.1087  164.1649 C.3     1  UNL1        0.0722
      7 C         141.3956  137.7254  162.9893 C.3     1  UNL1        0.0191
      8 C         140.2215  139.4579  166.3613 C.3     1  UNL1        0.0768
      9 C         140.0076  140.9053  166.6919 C.3     1  UNL1        0.0437
     10 C         139.3784  141.8199  165.6832 C.ar    1  UNL1       -0.0207
     11 C         138.3012  141.3065  164.7743 C.ar    1  UNL1       -0.0030
     12 C         137.6719  142.2211  163.7656 C.ar    1  UNL1        0.0138
     13 C         138.1198  143.6492  163.6659 C.ar    1  UNL1        0.0415
     14 N         137.4904  144.5639  162.6572 N.pl3   1  UNL1       -0.3570
     15 C         139.1969  144.1626  164.5748 C.ar    1  UNL1        0.0138
     16 C         139.8262  143.2480  165.5835 C.ar    1  UNL1       -0.0030
     17 H         136.7835  144.2269  162.0606 H       1  UNL1        0.1424
     18 H         137.7844  145.5012  162.5917 H       1  UNL1        0.1424
     19 C         143.0342  137.9222  159.1275 C.2     1  UNL1        0.2654
     20 O         143.6963  139.2592  158.9735 O.2     1  UNL1       -0.2684
     21 N         142.9952  137.2549  160.4704 N.am    1  UNL1       -0.2996
     22 H         142.5605  136.3773  160.5716 H       1  UNL1        0.1498
     23 N         141.9672  135.6782  156.1458 N.ar    1  UNL1       -0.2527
     24 N         142.8784  135.9790  157.2986 N.ar    1  UNL1       -0.1647
     25 C         142.4109  137.2525  157.9388 C.ar    1  UNL1        0.1554
     26 C         141.2108  137.7386  157.1816 C.ar    1  UNL1        0.0411
     27 C         140.3323  138.9415  157.3580 C.ar    1  UNL1        0.0032
     28 C         139.1795  139.1715  156.4262 C.ar    1  UNL1        0.0001
     29 C         138.9053  138.1985  155.3181 C.ar    1  UNL1        0.0015
     30 C         139.7838  136.9955  155.1417 C.ar    1  UNL1        0.0188
     31 C         140.9365  136.7656  156.0734 C.ar    1  UNL1        0.0794
     32 C         141.9173  133.1076  155.7712 C.3     1  UNL1        0.0263
     33 C         142.0687  134.4971  155.2266 C.3     1  UNL1        0.1053
     34 C         142.3217  134.7055  153.7629 C.3     1  UNL1        0.0263
@<TRIPOS>BOND
     1    32    33    1
     2    33    34    1
     3    33    23    1
     4    23    24   ar
     5    24    25   ar
     6    25    19    1
     7    19    20    2
     8    19    21   am
     9    21     1    1
    10     1     2    1
    11     2     3    1
    12     3     4    1
    13     4     5    1
    14     5     8    1
    15     8     9    1
    16     9    10    1
    17    10    11   ar
    18    11    12   ar
    19    12    13   ar
    20    13    14    1
    21    13    15   ar
    22    15    16   ar
    23     5     6    1
    24     6     7    1
    25    25    26   ar
    26    26    27   ar
    27    27    28   ar
    28    28    29   ar
    29    29    30   ar
    30    30    31   ar
    31    31    23   ar
    32     7     2    1
    33    31    26   ar
    34    16    10   ar
    35    21    22    1
    36    14    17    1
    37    14    18    1
@<TRIPOS>MOLECULE
*****
 34 37 0 0 0
SMALL
GASTEIGER

@<TRIPOS>ATOM
      1 C         144.5118  142.7165  163.2806 C.3     1  UNL1        0.0898
      2 C         143.3763  142.1409  164.0739 C.3     1  UNL1        0.0224
      3 C         142.2628  143.0296  164.5433 C.3     1  UNL1        0.0191
      4 C         141.1274  142.4539  165.3365 C.3     1  UNL1        0.0722
      5 N         141.1054  140.9894  165.6605 N.3     1  UNL1       -0.2724
      6 C         142.2188  140.1007  165.1912 C.3     1  UNL1        0.0722
      7 C         143.3544  140.6764  164.3978 C.3     1  UNL1        0.0191
      8 C         139.9699  140.4138  166.4538 C.3     1  UNL1        0.0768
      9 C         140.1149  140.2119  167.9330 C.3     1  UNL1        0.0437
     10 C         140.9621  141.1515  168.7388 C.ar    1  UNL1       -0.0207
     11 C         142.3719  140.7774  169.0889 C.ar    1  UNL1       -0.0030
     12 C         143.2192  141.7170  169.8946 C.ar    1  UNL1        0.0138
     13 C         142.6566  143.0308  170.3502 C.ar    1  UNL1        0.0415
     14 N         143.5039  143.9705  171.1560 N.pl3   1  UNL1       -0.3570
     15 C         141.2469  143.4049  170.0001 C.ar    1  UNL1        0.0138
     16 C         140.3996  142.4653  169.1944 C.ar    1  UNL1       -0.0030
     17 H         144.4292  143.7250  171.3857 H       1  UNL1        0.1424
     18 H         143.1347  144.8328  171.4550 H       1  UNL1        0.1424
     19 C         144.1398  142.7599  160.7096 C.2     1  UNL1        0.2654
     20 O         143.1516  143.8766  160.8715 O.2     1  UNL1       -0.2684
     21 N         144.8199  142.1798  161.9142 N.am    1  UNL1       -0.2996
     22 H         145.4685  141.4468  161.8080 H       1  UNL1        0.1498
     23 N         145.4038  141.9609  157.1279 N.ar    1  UNL1       -0.2527
     24 N         145.4085  142.8197  158.3576 N.ar    1  UNL1       -0.1647
     25 C         144.4479  142.2232  159.3432 C.ar    1  UNL1        0.1554
     26 C         143.8495  140.9957  158.7226 C.ar    1  UNL1        0.0411
     27 C         142.8430  140.0046  159.2273 C.ar    1  UNL1        0.0032
     28 C         142.4273  138.8515  158.3628 C.ar    1  UNL1        0.0001
     29 C         143.0181  138.6894  156.9936 C.ar    1  UNL1        0.0015
     30 C         144.0246  139.6804  156.4889 C.ar    1  UNL1        0.0188
     31 C         144.4403  140.8336  157.3534 C.ar    1  UNL1        0.0794
     32 C         147.7154  142.0971  155.9497 C.3     1  UNL1        0.0263
     33 C         146.2194  142.1892  155.8899 C.3     1  UNL1        0.1053
     34 C         145.5391  142.5097  154.5920 C.3     1  UNL1        0.0263
@<TRIPOS>BOND
     1    32    33    1
     2    33    34    1
     3    33    23    1
     4    23    24   ar
     5    24    25   ar
     6    25    19    1
     7    19    20    2
     8    19    21   am
     9    21     1    1
    10     1     2    1
    11     2     3    1
    12     3     4    1
    13     4     5    1
    14     5     8    1
    15     8     9    1
    16     9    10    1
    17    10    11   ar
    18    11    12   ar
    19    12    13   ar
    20    13    14    1
    21    13    15   ar
    22    15    16   ar
    23     5     6    1
    24     6     7    1
    25    25    26   ar
    26    26    27   ar
    27    27    28   ar
    28    28    29   ar
    29    29    30   ar
    30    30    31   ar
    31    31    23   ar
    32     7     2    1
    33    31    26   ar
    34    16    10   ar
    35    21    22    1
    36    14    17    1
    37    14    18    1
@<TRIPOS>MOLECULE
*****
 34 37 0 0 0
SMALL
GASTEIGER

@<TRIPOS>ATOM
      1 C         144.3470  143.7126  162.6911 C.3     1  UNL1        0.0898
      2 C         143.9133  142.7706  163.7749 C.3     1  UNL1        0.0224
      3 C         143.5967  143.2966  165.1435 C.3     1  UNL1        0.0191
      4 C         143.1631  142.3546  166.2272 C.3     1  UNL1        0.0722
      5 N         143.0461  140.8865  165.9424 N.3     1  UNL1       -0.2724
      6 C         143.3627  140.3605  164.5738 C.3     1  UNL1        0.0722
      7 C         143.7963  141.3026  163.4900 C.3     1  UNL1        0.0191
      8 C         142.6124  139.9445  167.0262 C.3     1  UNL1        0.0768
      9 C         141.1535  139.7669  167.3262 C.3     1  UNL1        0.0437
     10 C         140.1287  140.0770  166.2758 C.ar    1  UNL1       -0.0207
     11 C         139.6009  138.9823  165.3966 C.ar    1  UNL1       -0.0030
     12 C         138.5760  139.2923  164.3461 C.ar    1  UNL1        0.0138
     13 C         138.0789  140.6971  164.1749 C.ar    1  UNL1        0.0415
     14 N         137.0540  141.0072  163.1244 N.pl3   1  UNL1       -0.3570
     15 C         138.6067  141.7919  165.0541 C.ar    1  UNL1        0.0138
     16 C         139.6316  141.4819  166.1045 C.ar    1  UNL1       -0.0030
     17 H         136.7076  140.2887  162.5473 H       1  UNL1        0.1424
     18 H         136.7277  141.9293  163.0120 H       1  UNL1        0.1424
     19 C         142.2384  144.4233  161.3498 C.2     1  UNL1        0.2654
     20 O         141.6488  145.0202  162.5931 O.2     1  UNL1       -0.2684
     21 N         143.5876  143.7695  161.3988 N.am    1  UNL1       -0.2996
     22 H         143.9746  143.3776  160.5827 H       1  UNL1        0.1498
     23 N         140.7231  145.1552  157.8521 N.ar    1  UNL1       -0.2527
     24 N         141.7004  145.4643  158.9473 N.ar    1  UNL1       -0.1647
     25 C         141.4790  144.4802  160.0574 C.ar    1  UNL1        0.1554
     26 C         140.3648  143.5629  159.6485 C.ar    1  UNL1        0.0411
     27 C         139.7153  142.4017  160.3411 C.ar    1  UNL1        0.0032
     28 C         138.5987  141.6577  159.6707 C.ar    1  UNL1        0.0001
     29 C         138.1315  142.0749  158.3077 C.ar    1  UNL1        0.0015
     30 C         138.7810  143.2361  157.6151 C.ar    1  UNL1        0.0188
     31 C         139.8977  143.9801  158.2855 C.ar    1  UNL1        0.0794
     32 C         141.5821  145.6477  155.4501 C.3     1  UNL1        0.0263
     33 C         140.5939  145.8919  156.5519 C.3     1  UNL1        0.1053
     34 C         139.4766  146.8726  156.3533 C.3     1  UNL1        0.0263
@<TRIPOS>BOND
     1    32    33    1
     2    33    34    1
     3    33    23    1
     4    23    24   ar
     5    24    25   ar
     6    25    19    1
     7    19    20    2
     8    19    21   am
     9    21     1    1
    10     1     2    1
    11     2     3    1
    12     3     4    1
    13     4     5    1
    14     5     8    1
    15     8     9    1
    16     9    10    1
    17    10    11   ar
    18    11    12   ar
    19    12    13   ar
    20    13    14    1
    21    13    15   ar
    22    15    16   ar
    23     5     6    1
    24     6     7    1
    25    25    26   ar
    26    26    27   ar
    27    27    28   ar
    28    28    29   ar
    29    29    30   ar
    30    30    31   ar
    31    31    23   ar
    32     7     2    1
    33    31    26   ar
    34    16    10   ar
    35    21    22    1
    36    14    17    1
    37    14    18    1
@<TRIPOS>MOLECULE
*****
 34 37 0 0 0
SMALL
GASTEIGER

@<TRIPOS>ATOM
      1 C         141.4871  145.5491  163.0195 C.3     1  UNL1        0.0898
      2 C         141.2079  144.4709  164.0242 C.3     1  UNL1        0.0224
      3 C         139.9015  144.4522  164.7609 C.3     1  UNL1        0.0191
      4 C         139.6224  143.3739  165.7656 C.3     1  UNL1        0.0722
      5 N         140.6497  142.3142  166.0336 N.3     1  UNL1       -0.2724
      6 C         141.9562  142.3329  165.2969 C.3     1  UNL1        0.0722
      7 C         142.2353  143.4113  164.2922 C.3     1  UNL1        0.0191
      8 C         140.3705  141.2360  167.0383 C.3     1  UNL1        0.0768
      9 C         139.2844  140.2340  166.7809 C.3     1  UNL1        0.0437
     10 C         139.1439  139.6123  165.4230 C.ar    1  UNL1       -0.0207
     11 C         139.8697  138.3394  165.1022 C.ar    1  UNL1       -0.0030
     12 C         139.7293  137.7177  163.7444 C.ar    1  UNL1        0.0138
     13 C         138.8631  138.3690  162.7073 C.ar    1  UNL1        0.0415
     14 N         138.7226  137.7473  161.3494 N.pl3   1  UNL1       -0.3570
     15 C         138.1373  139.6419  163.0281 C.ar    1  UNL1        0.0138
     16 C         138.2777  140.2636  164.3860 C.ar    1  UNL1       -0.0030
     17 H         139.1990  136.9118  161.1388 H       1  UNL1        0.1424
     18 H         138.1541  138.1747  160.6687 H       1  UNL1        0.1424
     19 C         141.4268  144.8182  160.5271 C.2     1  UNL1        0.2654
     20 O         142.7461  144.1255  160.6984 O.2     1  UNL1       -0.2684
     21 N         140.7973  145.5300  161.6877 N.am    1  UNL1       -0.2996
     22 H         139.9313  145.9847  161.5753 H       1  UNL1        0.1498
     23 N         140.0058  145.4183  156.9654 N.ar    1  UNL1       -0.2527
     24 N         140.8661  145.8374  158.1205 N.ar    1  UNL1       -0.1647
     25 C         140.7370  144.7991  159.1952 C.ar    1  UNL1        0.1554
     26 C         139.7969  143.7383  158.7044 C.ar    1  UNL1        0.0411
     27 C         139.2939  142.4733  159.3343 C.ar    1  UNL1        0.0032
     28 C         138.3391  141.5910  158.5861 C.ar    1  UNL1        0.0001
     29 C         137.8872  141.9738  157.2080 C.ar    1  UNL1        0.0015
     30 C         138.3901  143.2387  156.5780 C.ar    1  UNL1        0.0188
     31 C         139.3450  144.1210  157.3263 C.ar    1  UNL1        0.0794
     32 C         139.0801  147.4609  155.6534 C.3     1  UNL1        0.0263
     33 C         139.8361  146.1654  155.6758 C.3     1  UNL1        0.1053
     34 C         140.4222  145.6172  154.4086 C.3     1  UNL1        0.0263
@<TRIPOS>BOND
     1    32    33    1
     2    33    34    1
     3    33    23    1
     4    23    24   ar
     5    24    25   ar
     6    25    19    1
     7    19    20    2
     8    19    21   am
     9    21     1    1
    10     1     2    1
    11     2     3    1
    12     3     4    1
    13     4     5    1
    14     5     8    1
    15     8     9    1
    16     9    10    1
    17    10    11   ar
    18    11    12   ar
    19    12    13   ar
    20    13    14    1
    21    13    15   ar
    22    15    16   ar
    23     5     6    1
    24     6     7    1
    25    25    26   ar
    26    26    27   ar
    27    27    28   ar
    28    28    29   ar
    29    29    30   ar
    30    30    31   ar
    31    31    23   ar
    32     7     2    1
    33    31    26   ar
    34    16    10   ar
    35    21    22    1
    36    14    17    1
    37    14    18    1
@<TRIPOS>MOLECULE
*****
 34 37 0 0 0
SMALL
GASTEIGER

@<TRIPOS>ATOM
      1 C         143.6243  137.7777  161.1872 C.3     1  UNL1        0.0898
      2 C         142.8241  138.1578  162.3976 C.3     1  UNL1        0.0224
      3 C         141.4288  137.6346  162.5690 C.3     1  UNL1        0.0191
      4 C         140.6286  138.0148  163.7794 C.3     1  UNL1        0.0722
      5 N         141.2237  138.9181  164.8186 N.3     1  UNL1       -0.2724
      6 C         142.6190  139.4413  164.6473 C.3     1  UNL1        0.0722
      7 C         143.4192  139.0612  163.4367 C.3     1  UNL1        0.0191
      8 C         140.4235  139.2982  166.0290 C.3     1  UNL1        0.0768
      9 C         138.9894  139.7120  165.8805 C.3     1  UNL1        0.0437
     10 C         138.6371  140.9125  165.0529 C.ar    1  UNL1       -0.0207
     11 C         137.7752  140.7571  163.8351 C.ar    1  UNL1       -0.0030
     12 C         137.4229  141.9574  163.0075 C.ar    1  UNL1        0.0138
     13 C         137.9325  143.3132  163.3978 C.ar    1  UNL1        0.0415
     14 N         137.5801  144.5137  162.5702 N.pl3   1  UNL1       -0.3570
     15 C         138.7943  143.4685  164.6156 C.ar    1  UNL1        0.0138
     16 C         139.1467  142.2682  165.4432 C.ar    1  UNL1       -0.0030
     17 H         137.0144  144.4117  161.7709 H       1  UNL1        0.1424
     18 H         137.9145  145.4035  162.8263 H       1  UNL1        0.1424
     19 C         142.9540  137.7866  158.6770 C.2     1  UNL1        0.2654
     20 O         143.6297  139.1141  158.5013 O.2     1  UNL1       -0.2684
     21 N         142.9513  137.1183  160.0200 N.am    1  UNL1       -0.2996
     22 H         142.5078  136.2470  160.1354 H       1  UNL1        0.1498
     23 N         140.8194  136.7217  155.6152 N.ar    1  UNL1       -0.2527
     24 N         141.1961  137.7254  156.6643 N.ar    1  UNL1       -0.1647
     25 C         142.2810  137.1271  157.5098 C.ar    1  UNL1        0.1554
     26 C         142.5749  135.7537  156.9833 C.ar    1  UNL1        0.0411
     27 C         143.5483  134.6988  157.4189 C.ar    1  UNL1        0.0032
     28 C         143.6183  133.3934  156.6834 C.ar    1  UNL1        0.0001
     29 C         142.7150  133.1428  155.5125 C.ar    1  UNL1        0.0015
     30 C         141.7416  134.1976  155.0769 C.ar    1  UNL1        0.0188
     31 C         141.6715  135.5031  155.8124 C.ar    1  UNL1        0.0794
     32 C         138.4158  137.4241  154.9227 C.3     1  UNL1        0.0263
     33 C         139.7741  136.9044  154.5551 C.3     1  UNL1        0.1053
     34 C         140.0869  136.5675  153.1273 C.3     1  UNL1        0.0263
@<TRIPOS>BOND
     1    32    33    1
     2    33    34    1
     3    33    23    1
     4    23    24   ar
     5    24    25   ar
     6    25    19    1
     7    19    20    2
     8    19    21   am
     9    21     1    1
    10     1     2    1
    11     2     3    1
    12     3     4    1
    13     4     5    1
    14     5     8    1
    15     8     9    1
    16     9    10    1
    17    10    11   ar
    18    11    12   ar
    19    12    13   ar
    20    13    14    1
    21    13    15   ar
    22    15    16   ar
    23     5     6    1
    24     6     7    1
    25    25    26   ar
    26    26    27   ar
    27    27    28   ar
    28    28    29   ar
    29    29    30   ar
    30    30    31   ar
    31    31    23   ar
    32     7     2    1
    33    31    26   ar
    34    16    10   ar
    35    21    22    1
    36    14    17    1
    37    14    18    1
@<TRIPOS>MOLECULE
*****
 34 37 0 0 0
SMALL
GASTEIGER

@<TRIPOS>ATOM
      1 C         144.6681  139.5768  163.7697 C.3     1  UNL1        0.0898
      2 C         144.1286  139.3913  162.3824 C.3     1  UNL1        0.0224
      3 C         143.6379  138.0439  161.9423 C.3     1  UNL1        0.0191
      4 C         143.0985  137.8586  160.5550 C.3     1  UNL1        0.0722
      5 N         143.0496  139.0206  159.6077 N.3     1  UNL1       -0.2724
      6 C         143.5402  140.3680  160.0478 C.3     1  UNL1        0.0722
      7 C         144.0798  140.5534  161.4352 C.3     1  UNL1        0.0191
      8 C         142.5101  138.8352  158.2205 C.3     1  UNL1        0.0768
      9 C         141.0283  138.7965  157.9909 C.3     1  UNL1        0.0437
     10 C         140.0905  139.2605  159.0657 C.ar    1  UNL1       -0.0207
     11 C         139.7380  140.7142  159.1773 C.ar    1  UNL1       -0.0030
     12 C         138.8003  141.1783  160.2521 C.ar    1  UNL1        0.0138
     13 C         138.2149  140.1886  161.2153 C.ar    1  UNL1        0.0415
     14 N         137.2771  140.6526  162.2902 N.pl3   1  UNL1       -0.3570
     15 C         138.5674  138.7349  161.1037 C.ar    1  UNL1        0.0138
     16 C         139.5052  138.2708  160.0290 C.ar    1  UNL1       -0.0030
     17 H         137.0457  141.6067  162.3634 H       1  UNL1        0.1424
     18 H         136.8929  140.0030  162.9224 H       1  UNL1        0.1424
     19 C         142.8857  140.7346  165.2639 C.2     1  UNL1        0.2654
     20 O         142.9621  141.9614  164.4044 O.2     1  UNL1       -0.2684
     21 N         143.7387  139.5422  164.9466 N.am    1  UNL1       -0.2996
     22 H         143.6886  138.7369  165.5107 H       1  UNL1        0.1498
     23 N         141.0140  141.0551  168.6491 N.ar    1  UNL1       -0.2527
     24 N         142.1994  141.3403  167.7753 N.ar    1  UNL1       -0.1647
     25 C         141.9563  140.7001  166.4408 C.ar    1  UNL1        0.1554
     26 C         140.6207  140.0191  166.4898 C.ar    1  UNL1        0.0411
     27 C         139.8595  139.2276  165.4679 C.ar    1  UNL1        0.0032
     28 C         138.5160  138.6556  165.8109 C.ar    1  UNL1        0.0001
     29 C         137.9336  138.8750  167.1757 C.ar    1  UNL1        0.0015
     30 C         138.6948  139.6665  168.1975 C.ar    1  UNL1        0.0188
     31 C         140.0383  140.2386  167.8546 C.ar    1  UNL1        0.0794
     32 C         141.6739  140.9065  171.1576 C.3     1  UNL1        0.0263
     33 C         140.8356  141.5071  170.0682 C.3     1  UNL1        0.1053
     34 C         139.8191  142.5595  170.3980 C.3     1  UNL1        0.0263
@<TRIPOS>BOND
     1    32    33    1
     2    33    34    1
     3    33    23    1
     4    23    24   ar
     5    24    25   ar
     6    25    19    1
     7    19    20    2
     8    19    21   am
     9    21     1    1
    10     1     2    1
    11     2     3    1
    12     3     4    1
    13     4     5    1
    14     5     8    1
    15     8     9    1
    16     9    10    1
    17    10    11   ar
    18    11    12   ar
    19    12    13   ar
    20    13    14    1
    21    13    15   ar
    22    15    16   ar
    23     5     6    1
    24     6     7    1
    25    25    26   ar
    26    26    27   ar
    27    27    28   ar
    28    28    29   ar
    29    29    30   ar
    30    30    31   ar
    31    31    23   ar
    32     7     2    1
    33    31    26   ar
    34    16    10   ar
    35    21    22    1
    36    14    17    1
    37    14    18    1
@<TRIPOS>MOLECULE
*****
 34 37 0 0 0
SMALL
GASTEIGER

@<TRIPOS>ATOM
      1 C         140.4294  144.9195  163.4156 C.3     1  UNL1        0.0898
      2 C         140.9166  143.6663  164.0805 C.3     1  UNL1        0.0224
      3 C         142.3601  143.5345  164.4664 C.3     1  UNL1        0.0191
      4 C         142.8472  142.2812  165.1313 C.3     1  UNL1        0.0722
      5 N         141.8909  141.1598  165.4103 N.3     1  UNL1       -0.2724
      6 C         140.4474  141.2916  165.0244 C.3     1  UNL1        0.0722
      7 C         139.9602  142.5449  164.3595 C.3     1  UNL1        0.0191
      8 C         142.3781  139.9066  166.0752 C.3     1  UNL1        0.0768
      9 C         142.6000  139.8820  167.5585 C.3     1  UNL1        0.0437
     10 C         141.7562  140.7366  168.4572 C.ar    1  UNL1       -0.0207
     11 C         140.4333  140.2291  168.9494 C.ar    1  UNL1       -0.0030
     12 C         139.5895  141.0836  169.8482 C.ar    1  UNL1        0.0138
     13 C         140.0687  142.4456  170.2547 C.ar    1  UNL1        0.0415
     14 N         139.2249  143.3002  171.1536 N.pl3   1  UNL1       -0.3570
     15 C         141.3916  142.9531  169.7625 C.ar    1  UNL1        0.0138
     16 C         142.2354  142.0986  168.8638 C.ar    1  UNL1       -0.0030
     17 H         138.3566  142.9671  171.4766 H       1  UNL1        0.1424
     18 H         139.5394  144.1942  171.4204 H       1  UNL1        0.1424
     19 C         140.9155  144.7929  160.8665 C.2     1  UNL1        0.2654
     20 O         142.3881  144.7571  161.1491 O.2     1  UNL1       -0.2684
     21 N         139.9360  144.8741  161.9998 N.am    1  UNL1       -0.2996
     22 H         138.9694  144.8976  161.8143 H       1  UNL1        0.1498
     23 N         139.9914  145.3381  157.1363 N.ar    1  UNL1       -0.2527
     24 N         140.6636  145.7895  158.3990 N.ar    1  UNL1       -0.1647
     25 C         140.4221  144.7475  159.4507 C.ar    1  UNL1        0.1554
     26 C         139.6006  143.6522  158.8379 C.ar    1  UNL1        0.0411
     27 C         139.0607  142.3696  159.3977 C.ar    1  UNL1        0.0032
     28 C         138.2545  141.4520  158.5270 C.ar    1  UNL1        0.0001
     29 C         137.9883  141.8170  157.0967 C.ar    1  UNL1        0.0015
     30 C         138.5282  143.0996  156.5370 C.ar    1  UNL1        0.0188
     31 C         139.3344  144.0172  157.4076 C.ar    1  UNL1        0.0794
     32 C         141.0932  145.8819  154.8471 C.3     1  UNL1        0.0263
     33 C         139.9784  146.0778  155.8315 C.3     1  UNL1        0.1053
     34 C         138.8506  147.0133  155.5108 C.3     1  UNL1        0.0263
@<TRIPOS>BOND
     1    32    33    1
     2    33    34    1
     3    33    23    1
     4    23    24   ar
     5    24    25   ar
     6    25    19    1
     7    19    20    2
     8    19    21   am
     9    21     1    1
    10     1     2    1
    11     2     3    1
    12     3     4    1
    13     4     5    1
    14     5     8    1
    15     8     9    1
    16     9    10    1
    17    10    11   ar
    18    11    12   ar
    19    12    13   ar
    20    13    14    1
    21    13    15   ar
    22    15    16   ar
    23     5     6    1
    24     6     7    1
    25    25    26   ar
    26    26    27   ar
    27    27    28   ar
    28    28    29   ar
    29    29    30   ar
    30    30    31   ar
    31    31    23   ar
    32     7     2    1
    33    31    26   ar
    34    16    10   ar
    35    21    22    1
    36    14    17    1
    37    14    18    1
@<TRIPOS>MOLECULE
*****
 34 37 0 0 0
SMALL
GASTEIGER

@<TRIPOS>ATOM
      1 C         137.3535  141.4849  163.0588 C.3     1  UNL1        0.0898
      2 C         138.2094  141.5320  164.2897 C.3     1  UNL1        0.0224
      3 C         138.3447  140.3152  165.1562 C.3     1  UNL1        0.0191
      4 C         139.2006  140.3624  166.3871 C.3     1  UNL1        0.0722
      5 N         139.9213  141.6265  166.7515 N.3     1  UNL1       -0.2724
      6 C         139.7861  142.8434  165.8850 C.3     1  UNL1        0.0722
      7 C         138.9301  142.7961  164.6540 C.3     1  UNL1        0.0191
      8 C         140.7773  141.6736  167.9824 C.3     1  UNL1        0.0768
      9 C         142.2685  141.5633  167.8637 C.3     1  UNL1        0.0437
     10 C         142.8803  140.9570  166.6357 C.ar    1  UNL1       -0.0207
     11 C         142.9009  139.4668  166.4657 C.ar    1  UNL1       -0.0030
     12 C         143.5127  138.8604  165.2377 C.ar    1  UNL1        0.0138
     13 C         144.1039  139.7443  164.1797 C.ar    1  UNL1        0.0415
     14 N         144.7157  139.1379  162.9516 N.pl3   1  UNL1       -0.3570
     15 C         144.0832  141.2345  164.3498 C.ar    1  UNL1        0.0138
     16 C         143.4715  141.8409  165.5777 C.ar    1  UNL1       -0.0030
     17 H         144.7292  138.1599  162.8400 H       1  UNL1        0.1424
     18 H         145.1037  139.7180  162.2573 H       1  UNL1        0.1424
     19 C         138.1655  139.8322  161.2259 C.2     1  UNL1        0.2654
     20 O         137.7244  138.6758  162.0732 O.2     1  UNL1       -0.2684
     21 N         137.9801  141.2368  161.7187 N.am    1  UNL1       -0.2996
     22 H         138.2697  141.9959  161.1626 H       1  UNL1        0.1498
     23 N         139.1471  139.4815  157.4871 N.ar    1  UNL1       -0.2527
     24 N         138.1745  139.8899  158.5535 N.ar    1  UNL1       -0.1647
     25 C         138.7922  139.5842  159.8858 C.ar    1  UNL1        0.1554
     26 C         140.1465  138.9868  159.6428 C.ar    1  UNL1        0.0411
     27 C         141.2082  138.4924  160.5799 C.ar    1  UNL1        0.0032
     28 C         142.4893  137.9346  160.0345 C.ar    1  UNL1        0.0001
     29 C         142.7087  137.8712  158.5520 C.ar    1  UNL1        0.0015
     30 C         141.6469  138.3655  157.6149 C.ar    1  UNL1        0.0188
     31 C         140.3658  138.9234  158.1603 C.ar    1  UNL1        0.0794
     32 C         138.9384  140.9639  155.3635 C.3     1  UNL1        0.0263
     33 C         138.9377  139.6089  156.0072 C.3     1  UNL1        0.1053
     34 C         138.7277  138.3815  155.1710 C.3     1  UNL1        0.0263
@<TRIPOS>BOND
     1    32    33    1
     2    33    34    1
     3    33    23    1
     4    23    24   ar
     5    24    25   ar
     6    25    19    1
     7    19    20    2
     8    19    21   am
     9    21     1    1
    10     1     2    1
    11     2     3    1
    12     3     4    1
    13     4     5    1
    14     5     8    1
    15     8     9    1
    16     9    10    1
    17    10    11   ar
    18    11    12   ar
    19    12    13   ar
    20    13    14    1
    21    13    15   ar
    22    15    16   ar
    23     5     6    1
    24     6     7    1
    25    25    26   ar
    26    26    27   ar
    27    27    28   ar
    28    28    29   ar
    29    29    30   ar
    30    30    31   ar
    31    31    23   ar
    32     7     2    1
    33    31    26   ar
    34    16    10   ar
    35    21    22    1
    36    14    17    1
    37    14    18    1
