@<TRIPOS>MOLECULE
*****
 31 34 0 0 0
SMALL
GASTEIGER

@<TRIPOS>ATOM
      1 C         142.2833  138.0216  158.6011 C.ar    1  UNL1        0.1453
      2 C         140.8220  138.3597  158.5789 C.ar    1  UNL1        0.0561
      3 C         140.0805  138.5669  159.8663 C.ar    1  UNL1        0.0860
      4 N         140.8003  138.4360  161.1758 N.ar    1  UNL1       -0.2729
      5 C         142.2615  138.0979  161.1980 C.ar    1  UNL1        0.2679
      6 O         142.9813  137.9670  162.5074 O.2     1  UNL1       -0.2665
      7 C         143.0030  137.8907  159.9106 C.ar    1  UNL1        0.0980
      8 C         140.0589  138.6432  162.4632 C.ar    1  UNL1        0.0671
      9 C         139.6240  140.0215  162.8648 C.ar    1  UNL1        0.0207
     10 C         138.8825  140.2287  164.1521 C.ar    1  UNL1        0.0384
     11 C         138.5759  139.0576  165.0379 C.ar    1  UNL1        0.1387
     12 C         139.0108  137.6793  164.6363 C.ar    1  UNL1        0.0384
     13 C         139.7523  137.4722  163.3489 C.ar    1  UNL1        0.0207
     14 O         137.8345  139.2648  166.3253 O.3     1  UNL1       -0.4740
     15 C         138.5912  139.3973  167.6137 C.3     1  UNL1        0.2226
     16 C         139.8679  140.1836  167.6560 C.3     1  UNL1        0.1200
     17 N         140.0000  141.3496  168.5903 N.3     1  UNL1       -0.2696
     18 C         139.5350  141.3944  170.0157 C.3     1  UNL1        0.0722
     19 C         139.8679  142.7480  170.5696 C.3     1  UNL1        0.0188
     20 C         140.5387  143.5399  169.4864 C.3     1  UNL1        0.0188
     21 C         140.6203  142.6756  168.2632 C.3     1  UNL1        0.0722
     22 O         143.0248  137.8144  157.3137 O.3     1  UNL1       -0.4704
     23 C         142.3839  137.0495  156.1939 C.3     1  UNL1        0.2320
     24 C         142.4270  132.5499  156.2290 C.ar    1  UNL1        0.1387
     25 C         143.2910  133.3157  157.1865 C.ar    1  UNL1        0.0367
     26 C         143.2766  134.8155  157.1749 C.ar    1  UNL1        0.0024
     27 C         142.3983  135.5496  156.2056 C.ar    1  UNL1        0.0214
     28 C         141.5343  134.7838  155.2480 C.ar    1  UNL1        0.0024
     29 C         141.5486  133.2839  155.2597 C.ar    1  UNL1        0.0367
     30 C         141.5805  130.2842  155.2802 C.3     1  UNL1        0.2525
     31 O         142.4414  131.0500  156.2407 O.3     1  UNL1       -0.4714
@<TRIPOS>BOND
     1    30    31    1
     2    31    24    1
     3    24    25   ar
     4    25    26   ar
     5    26    27   ar
     6    27    23    1
     7    23    22    1
     8    22     1    1
     9     1     2   ar
    10     2     3   ar
    11     3     4   ar
    12     4     8    1
    13     8     9   ar
    14     9    10   ar
    15    10    11   ar
    16    11    14    1
    17    14    15    1
    18    15    16    1
    19    16    17    1
    20    17    18    1
    21    18    19    1
    22    19    20    1
    23    20    21    1
    24    11    12   ar
    25    12    13   ar
    26     4     5   ar
    27     5     6    2
    28     5     7   ar
    29    27    28   ar
    30    28    29   ar
    31    29    24   ar
    32     7     1   ar
    33    13     8   ar
    34    21    17    1
@<TRIPOS>MOLECULE
*****
 31 34 0 0 0
SMALL
GASTEIGER

@<TRIPOS>ATOM
      1 C         138.6606  139.1638  164.8323 C.ar    1  UNL1        0.1453
      2 C         138.8928  137.7682  164.3337 C.ar    1  UNL1        0.0561
      3 C         139.6650  137.5430  163.0676 C.ar    1  UNL1        0.0860
      4 N         140.2048  138.7133  162.3000 N.ar    1  UNL1       -0.2729
      5 C         139.9725  140.1088  162.7987 C.ar    1  UNL1        0.2679
      6 O         140.5123  141.2790  162.0312 O.2     1  UNL1       -0.2665
      7 C         139.2004  140.3340  164.0648 C.ar    1  UNL1        0.0980
      8 C         140.9769  138.4881  161.0339 C.ar    1  UNL1        0.0671
      9 C         142.3376  137.8590  161.0871 C.ar    1  UNL1        0.0207
     10 C         143.1097  137.6337  159.8209 C.ar    1  UNL1        0.0384
     11 C         142.5211  138.0376  158.5016 C.ar    1  UNL1        0.1387
     12 C         141.1605  138.6667  158.4485 C.ar    1  UNL1        0.0384
     13 C         140.3884  138.8919  159.7146 C.ar    1  UNL1        0.0207
     14 O         143.2932  137.8123  157.2355 O.3     1  UNL1       -0.4740
     15 C         142.6449  137.1168  156.0753 C.3     1  UNL1        0.2226
     16 C         141.8193  135.8856  156.3051 C.3     1  UNL1        0.1200
     17 N         142.4390  134.5281  156.1537 N.3     1  UNL1       -0.2696
     18 C         143.8059  134.1255  156.6223 C.3     1  UNL1        0.0722
     19 C         144.0122  132.6833  156.2653 C.3     1  UNL1        0.0188
     20 C         142.7728  132.1945  155.5761 C.3     1  UNL1        0.0188
     21 C         141.8005  133.3347  155.5071 C.3     1  UNL1        0.0722
     22 O         137.8884  139.3890  166.0985 O.3     1  UNL1       -0.4704
     23 C         138.5077  139.0571  167.4237 C.3     1  UNL1        0.2320
     24 C         140.7705  142.2094  169.7025 C.ar    1  UNL1        0.1387
     25 C         141.0866  141.9559  168.2583 C.ar    1  UNL1        0.0367
     26 C         140.3324  140.9051  167.4987 C.ar    1  UNL1        0.0024
     27 C         139.2620  140.1079  168.1833 C.ar    1  UNL1        0.0214
     28 C         138.9459  140.3615  169.6275 C.ar    1  UNL1        0.0024
     29 C         139.7001  141.4122  170.3871 C.ar    1  UNL1        0.0367
     30 C         143.0187  143.1801  170.5705 C.3     1  UNL1        0.2525
     31 O         141.5248  143.2602  170.4621 O.3     1  UNL1       -0.4714
@<TRIPOS>BOND
     1    30    31    1
     2    31    24    1
     3    24    25   ar
     4    25    26   ar
     5    26    27   ar
     6    27    23    1
     7    23    22    1
     8    22     1    1
     9     1     2   ar
    10     2     3   ar
    11     3     4   ar
    12     4     8    1
    13     8     9   ar
    14     9    10   ar
    15    10    11   ar
    16    11    14    1
    17    14    15    1
    18    15    16    1
    19    16    17    1
    20    17    18    1
    21    18    19    1
    22    19    20    1
    23    20    21    1
    24    11    12   ar
    25    12    13   ar
    26     4     5   ar
    27     5     6    2
    28     5     7   ar
    29    27    28   ar
    30    28    29   ar
    31    29    24   ar
    32     7     1   ar
    33    13     8   ar
    34    21    17    1
@<TRIPOS>MOLECULE
*****
 31 34 0 0 0
SMALL
GASTEIGER

@<TRIPOS>ATOM
      1 C         141.1701  145.3288  157.2058 C.ar    1  UNL1        0.1453
      2 C         142.2981  144.3843  157.4987 C.ar    1  UNL1        0.0561
      3 C         142.5162  143.8872  158.8970 C.ar    1  UNL1        0.0860
      4 N         141.6063  144.3346  160.0025 N.ar    1  UNL1       -0.2729
      5 C         140.4784  145.2790  159.7096 C.ar    1  UNL1        0.2679
      6 O         139.5686  145.7263  160.8151 O.2     1  UNL1       -0.2665
      7 C         140.2602  145.7761  158.3113 C.ar    1  UNL1        0.0980
      8 C         141.8245  143.8375  161.4008 C.ar    1  UNL1        0.0671
      9 C         142.3274  144.7735  162.4596 C.ar    1  UNL1        0.0207
     10 C         142.5456  144.2764  163.8580 C.ar    1  UNL1        0.0384
     11 C         142.2608  142.8433  164.1975 C.ar    1  UNL1        0.1387
     12 C         141.7578  141.9074  163.1387 C.ar    1  UNL1        0.0384
     13 C         141.5397  142.4045  161.7404 C.ar    1  UNL1        0.0207
     14 O         142.4789  142.3462  165.5958 O.3     1  UNL1       -0.4740
     15 C         141.3041  142.0908  166.4928 C.3     1  UNL1        0.2226
     16 C         140.1770  143.0789  166.5522 C.3     1  UNL1        0.1200
     17 N         139.2356  143.2134  165.3922 N.3     1  UNL1       -0.2696
     18 C         138.4640  142.0992  164.7492 C.3     1  UNL1        0.0722
     19 C         137.6519  142.6828  163.6312 C.3     1  UNL1        0.0188
     20 C         137.9217  144.1576  163.5832 C.3     1  UNL1        0.0188
     21 C         138.9004  144.4855  164.6716 C.3     1  UNL1        0.0722
     22 O         140.9519  145.8259  155.8075 O.3     1  UNL1       -0.4704
     23 C         139.6033  146.3369  155.3950 C.3     1  UNL1        0.2320
     24 C         138.8306  150.7669  155.2272 C.ar    1  UNL1        0.1387
     25 C         138.3641  149.9684  156.4081 C.ar    1  UNL1        0.0367
     26 C         138.6216  148.4917  156.4641 C.ar    1  UNL1        0.0024
     27 C         139.3458  147.8135  155.3391 C.ar    1  UNL1        0.0214
     28 C         139.8123  148.6120  154.1581 C.ar    1  UNL1        0.0024
     29 C         139.5548  150.0887  154.1022 C.ar    1  UNL1        0.0367
     30 C         138.3726  152.9203  153.8477 C.3     1  UNL1        0.2525
     31 O         138.5731  152.2435  155.1712 O.3     1  UNL1       -0.4714
@<TRIPOS>BOND
     1    30    31    1
     2    31    24    1
     3    24    25   ar
     4    25    26   ar
     5    26    27   ar
     6    27    23    1
     7    23    22    1
     8    22     1    1
     9     1     2   ar
    10     2     3   ar
    11     3     4   ar
    12     4     8    1
    13     8     9   ar
    14     9    10   ar
    15    10    11   ar
    16    11    14    1
    17    14    15    1
    18    15    16    1
    19    16    17    1
    20    17    18    1
    21    18    19    1
    22    19    20    1
    23    20    21    1
    24    11    12   ar
    25    12    13   ar
    26     4     5   ar
    27     5     6    2
    28     5     7   ar
    29    27    28   ar
    30    28    29   ar
    31    29    24   ar
    32     7     1   ar
    33    13     8   ar
    34    21    17    1
@<TRIPOS>MOLECULE
*****
 31 34 0 0 0
SMALL
GASTEIGER

@<TRIPOS>ATOM
      1 C         142.2171  138.0190  158.1092 C.ar    1  UNL1        0.1453
      2 C         140.7702  138.4147  158.0967 C.ar    1  UNL1        0.0561
      3 C         140.0513  138.6697  159.3882 C.ar    1  UNL1        0.0860
      4 N         140.7791  138.5289  160.6923 N.ar    1  UNL1       -0.2729
      5 C         142.2259  138.1332  160.7048 C.ar    1  UNL1        0.2679
      6 O         142.9537  137.9924  162.0088 O.2     1  UNL1       -0.2665
      7 C         142.9449  137.8782  159.4132 C.ar    1  UNL1        0.0980
      8 C         140.0601  138.7839  161.9838 C.ar    1  UNL1        0.0671
      9 C         139.8929  140.1879  162.4846 C.ar    1  UNL1        0.0207
     10 C         139.1739  140.4429  163.7761 C.ar    1  UNL1        0.0384
     11 C         138.6222  139.2938  164.5669 C.ar    1  UNL1        0.1387
     12 C         138.7894  137.8898  164.0661 C.ar    1  UNL1        0.0384
     13 C         139.5084  137.6348  162.7746 C.ar    1  UNL1        0.0207
     14 O         137.9032  139.5487  165.8584 O.3     1  UNL1       -0.4740
     15 C         138.5062  139.0948  167.1548 C.3     1  UNL1        0.2226
     16 C         139.5299  139.9468  167.8448 C.3     1  UNL1        0.1200
     17 N         140.7586  140.3887  167.1066 N.3     1  UNL1       -0.2696
     18 C         141.8359  139.4925  166.5716 C.3     1  UNL1        0.0722
     19 C         142.8688  140.3544  165.9082 C.3     1  UNL1        0.0188
     20 C         142.4299  141.7833  166.0332 C.3     1  UNL1        0.0188
     21 C         141.1257  141.8045  166.7739 C.3     1  UNL1        0.0722
     22 O         142.9361  137.7640  156.8177 O.3     1  UNL1       -0.4704
     23 C         142.3732  136.7900  155.8256 C.3     1  UNL1        0.2320
     24 C         142.7031  132.3660  156.5800 C.ar    1  UNL1        0.1387
     25 C         141.6979  132.8860  155.5956 C.ar    1  UNL1        0.0367
     26 C         141.5880  134.3607  155.3441 C.ar    1  UNL1        0.0024
     27 C         142.4832  135.3153  156.0770 C.ar    1  UNL1        0.0214
     28 C         143.4883  134.7953  157.0615 C.ar    1  UNL1        0.0024
     29 C         143.5983  133.3206  157.3129 C.ar    1  UNL1        0.0367
     30 C         142.3173  129.9164  155.8050 C.3     1  UNL1        0.2525
     31 O         142.8131  130.8913  156.8315 O.3     1  UNL1       -0.4714
@<TRIPOS>BOND
     1    30    31    1
     2    31    24    1
     3    24    25   ar
     4    25    26   ar
     5    26    27   ar
     6    27    23    1
     7    23    22    1
     8    22     1    1
     9     1     2   ar
    10     2     3   ar
    11     3     4   ar
    12     4     8    1
    13     8     9   ar
    14     9    10   ar
    15    10    11   ar
    16    11    14    1
    17    14    15    1
    18    15    16    1
    19    16    17    1
    20    17    18    1
    21    18    19    1
    22    19    20    1
    23    20    21    1
    24    11    12   ar
    25    12    13   ar
    26     4     5   ar
    27     5     6    2
    28     5     7   ar
    29    27    28   ar
    30    28    29   ar
    31    29    24   ar
    32     7     1   ar
    33    13     8   ar
    34    21    17    1
@<TRIPOS>MOLECULE
*****
 31 34 0 0 0
SMALL
GASTEIGER

@<TRIPOS>ATOM
      1 C         142.0757  137.0600  156.6627 C.ar    1  UNL1        0.1453
      2 C         140.6157  137.2746  156.3935 C.ar    1  UNL1        0.0561
      3 C         139.7663  137.9966  157.3971 C.ar    1  UNL1        0.0860
      4 N         140.3769  138.5042  158.6698 N.ar    1  UNL1       -0.2729
      5 C         141.8369  138.2897  158.9388 C.ar    1  UNL1        0.2679
      6 O         142.4474  138.7972  160.2114 O.2     1  UNL1       -0.2665
      7 C         142.6863  137.5676  157.9353 C.ar    1  UNL1        0.0980
      8 C         139.5275  139.2263  159.6733 C.ar    1  UNL1        0.0671
      9 C         138.9174  138.4743  160.8190 C.ar    1  UNL1        0.0207
     10 C         138.0680  139.1964  161.8225 C.ar    1  UNL1        0.0384
     11 C         137.8287  140.6704  161.6804 C.ar    1  UNL1        0.1387
     12 C         138.4387  141.4223  160.5348 C.ar    1  UNL1        0.0384
     13 C         139.2881  140.7002  159.5312 C.ar    1  UNL1        0.0207
     14 O         136.9793  141.3925  162.6840 O.3     1  UNL1       -0.4740
     15 C         137.6115  142.3464  163.6537 C.3     1  UNL1        0.2226
     16 C         138.9079  141.9903  164.3190 C.3     1  UNL1        0.1200
     17 N         138.9265  140.9950  165.4410 N.3     1  UNL1       -0.2696
     18 C         139.7329  141.1019  166.7012 C.3     1  UNL1        0.0722
     19 C         139.4468  139.8910  167.5389 C.3     1  UNL1        0.0188
     20 C         138.4634  139.0356  166.7963 C.3     1  UNL1        0.0188
     21 C         138.1419  139.7179  165.4997 C.3     1  UNL1        0.0722
     22 O         142.9251  136.3380  155.6591 O.3     1  UNL1       -0.4704
     23 C         143.8026  135.2031  156.0973 C.3     1  UNL1        0.2320
     24 C         142.4094  130.9548  155.5868 C.ar    1  UNL1        0.1387
     25 C         143.8356  131.2372  155.9557 C.ar    1  UNL1        0.0367
     26 C         144.3000  132.6533  156.1259 C.ar    1  UNL1        0.0024
     27 C         143.3382  133.7870  155.9272 C.ar    1  UNL1        0.0214
     28 C         141.9120  133.5046  155.5582 C.ar    1  UNL1        0.0024
     29 C         141.4476  132.0885  155.3880 C.ar    1  UNL1        0.0367
     30 C         140.6104  129.2569  154.7925 C.3     1  UNL1        0.2525
     31 O         141.9450  129.5387  155.4166 O.3     1  UNL1       -0.4714
@<TRIPOS>BOND
     1    30    31    1
     2    31    24    1
     3    24    25   ar
     4    25    26   ar
     5    26    27   ar
     6    27    23    1
     7    23    22    1
     8    22     1    1
     9     1     2   ar
    10     2     3   ar
    11     3     4   ar
    12     4     8    1
    13     8     9   ar
    14     9    10   ar
    15    10    11   ar
    16    11    14    1
    17    14    15    1
    18    15    16    1
    19    16    17    1
    20    17    18    1
    21    18    19    1
    22    19    20    1
    23    20    21    1
    24    11    12   ar
    25    12    13   ar
    26     4     5   ar
    27     5     6    2
    28     5     7   ar
    29    27    28   ar
    30    28    29   ar
    31    29    24   ar
    32     7     1   ar
    33    13     8   ar
    34    21    17    1
@<TRIPOS>MOLECULE
*****
 31 34 0 0 0
SMALL
GASTEIGER

@<TRIPOS>ATOM
      1 C         141.2599  145.3580  157.5446 C.ar    1  UNL1        0.1453
      2 C         142.2634  144.3160  157.9413 C.ar    1  UNL1        0.0561
      3 C         142.3209  143.8317  159.3598 C.ar    1  UNL1        0.0860
      4 N         141.3748  144.3895  160.3816 N.ar    1  UNL1       -0.2729
      5 C         140.3714  145.4314  159.9849 C.ar    1  UNL1        0.2679
      6 O         139.4254  145.9890  161.0067 O.2     1  UNL1       -0.2665
      7 C         140.3139  145.9156  158.5664 C.ar    1  UNL1        0.0980
      8 C         141.4323  143.9052  161.8002 C.ar    1  UNL1        0.0671
      9 C         140.6789  142.6721  162.2028 C.ar    1  UNL1        0.0207
     10 C         140.7364  142.1879  163.6213 C.ar    1  UNL1        0.0384
     11 C         141.5472  142.9367  164.6372 C.ar    1  UNL1        0.1387
     12 C         142.3005  144.1697  164.2345 C.ar    1  UNL1        0.0384
     13 C         142.2430  144.6540  162.8160 C.ar    1  UNL1        0.0207
     14 O         141.6047  142.4524  166.0557 O.3     1  UNL1       -0.4740
     15 C         140.3451  142.0438  166.7603 C.3     1  UNL1        0.2226
     16 C         140.2010  140.6477  167.2898 C.3     1  UNL1        0.1200
     17 N         139.9543  139.5090  166.3450 N.3     1  UNL1       -0.2696
     18 C         138.6371  138.8331  166.1039 C.3     1  UNL1        0.0722
     19 C         138.8502  137.7527  165.0854 C.3     1  UNL1        0.0188
     20 C         140.2991  137.7609  164.6971 C.3     1  UNL1        0.0188
     21 C         140.9814  138.8464  165.4756 C.3     1  UNL1        0.0722
     22 O         141.2024  145.8422  156.1261 O.3     1  UNL1       -0.4704
     23 C         139.8896  146.2486  155.5249 C.3     1  UNL1        0.2320
     24 C         138.8561  150.6090  155.1151 C.ar    1  UNL1        0.1387
     25 C         138.4286  149.8484  156.3351 C.ar    1  UNL1        0.0367
     26 C         138.7731  148.3949  156.4717 C.ar    1  UNL1        0.0024
     27 C         139.5451  147.7020  155.3883 C.ar    1  UNL1        0.0214
     28 C         139.9727  148.4627  154.1682 C.ar    1  UNL1        0.0024
     29 C         139.6281  149.9162  154.0316 C.ar    1  UNL1        0.0367
     30 C         138.4738  152.7000  153.6212 C.3     1  UNL1        0.2525
     31 O         138.5116  152.0625  154.9784 O.3     1  UNL1       -0.4714
@<TRIPOS>BOND
     1    30    31    1
     2    31    24    1
     3    24    25   ar
     4    25    26   ar
     5    26    27   ar
     6    27    23    1
     7    23    22    1
     8    22     1    1
     9     1     2   ar
    10     2     3   ar
    11     3     4   ar
    12     4     8    1
    13     8     9   ar
    14     9    10   ar
    15    10    11   ar
    16    11    14    1
    17    14    15    1
    18    15    16    1
    19    16    17    1
    20    17    18    1
    21    18    19    1
    22    19    20    1
    23    20    21    1
    24    11    12   ar
    25    12    13   ar
    26     4     5   ar
    27     5     6    2
    28     5     7   ar
    29    27    28   ar
    30    28    29   ar
    31    29    24   ar
    32     7     1   ar
    33    13     8   ar
    34    21    17    1
@<TRIPOS>MOLECULE
*****
 31 34 0 0 0
SMALL
GASTEIGER

@<TRIPOS>ATOM
      1 C         143.2836  138.4364  165.3664 C.ar    1  UNL1        0.1453
      2 C         144.2238  139.2490  164.5263 C.ar    1  UNL1        0.0561
      3 C         143.9957  139.3697  163.0486 C.ar    1  UNL1        0.0860
      4 N         142.8274  138.6777  162.4111 N.ar    1  UNL1       -0.2729
      5 C         141.8873  137.8651  163.2513 C.ar    1  UNL1        0.2679
      6 O         140.7191  137.1732  162.6138 O.2     1  UNL1       -0.2665
      7 C         142.1154  137.7444  164.7289 C.ar    1  UNL1        0.0980
      8 C         142.5992  138.7984  160.9335 C.ar    1  UNL1        0.0671
      9 C         142.8971  137.6375  160.0314 C.ar    1  UNL1        0.0207
     10 C         142.6690  137.7582  158.5537 C.ar    1  UNL1        0.0384
     11 C         142.1430  139.0397  157.9782 C.ar    1  UNL1        0.1387
     12 C         141.8451  140.2004  158.8804 C.ar    1  UNL1        0.0384
     13 C         142.0733  140.0798  160.3580 C.ar    1  UNL1        0.0207
     14 O         141.9149  139.1604  156.5006 O.3     1  UNL1       -0.4740
     15 C         141.3108  138.0177  155.7392 C.3     1  UNL1        0.2226
     16 C         142.1846  137.1233  154.9106 C.3     1  UNL1        0.1200
     17 N         142.5398  135.7530  155.4066 N.3     1  UNL1       -0.2696
     18 C         141.6247  134.5651  155.4462 C.3     1  UNL1        0.0722
     19 C         142.3917  133.4079  156.0142 C.3     1  UNL1        0.0188
     20 C         143.7809  133.8807  156.3256 C.3     1  UNL1        0.0188
     21 C         143.8723  135.3300  155.9501 C.3     1  UNL1        0.0722
     22 O         143.5118  138.3157  166.8440 O.3     1  UNL1       -0.4704
     23 C         142.8100  139.2449  167.7896 C.3     1  UNL1        0.2320
     24 C         140.2858  142.6059  166.1828 C.ar    1  UNL1        0.1387
     25 C         139.6534  141.2885  166.5208 C.ar    1  UNL1        0.0367
     26 C         140.4948  140.1681  167.0564 C.ar    1  UNL1        0.0024
     27 C         141.9686  140.3652  167.2540 C.ar    1  UNL1        0.0214
     28 C         142.6010  141.6827  166.9160 C.ar    1  UNL1        0.0024
     29 C         141.7596  142.8030  166.3804 C.ar    1  UNL1        0.0367
     30 C         139.8273  144.4053  164.3657 C.3     1  UNL1        0.2525
     31 O         139.4444  143.7263  165.6472 O.3     1  UNL1       -0.4714
@<TRIPOS>BOND
     1    30    31    1
     2    31    24    1
     3    24    25   ar
     4    25    26   ar
     5    26    27   ar
     6    27    23    1
     7    23    22    1
     8    22     1    1
     9     1     2   ar
    10     2     3   ar
    11     3     4   ar
    12     4     8    1
    13     8     9   ar
    14     9    10   ar
    15    10    11   ar
    16    11    14    1
    17    14    15    1
    18    15    16    1
    19    16    17    1
    20    17    18    1
    21    18    19    1
    22    19    20    1
    23    20    21    1
    24    11    12   ar
    25    12    13   ar
    26     4     5   ar
    27     5     6    2
    28     5     7   ar
    29    27    28   ar
    30    28    29   ar
    31    29    24   ar
    32     7     1   ar
    33    13     8   ar
    34    21    17    1
@<TRIPOS>MOLECULE
*****
 31 34 0 0 0
SMALL
GASTEIGER

@<TRIPOS>ATOM
      1 C         142.1499  137.9475  158.5059 C.ar    1  UNL1        0.1453
      2 C         142.9571  137.7251  159.7506 C.ar    1  UNL1        0.0561
      3 C         142.3484  137.9879  161.0961 C.ar    1  UNL1        0.0860
      4 N         140.9326  138.4730  161.1970 N.ar    1  UNL1       -0.2729
      5 C         140.1255  138.6954  159.9524 C.ar    1  UNL1        0.2679
      6 O         138.7097  139.1805  160.0533 O.2     1  UNL1       -0.2665
      7 C         140.7342  138.4326  158.6068 C.ar    1  UNL1        0.0980
      8 C         140.3239  138.7358  162.5425 C.ar    1  UNL1        0.0671
      9 C         139.7748  137.5988  163.3523 C.ar    1  UNL1        0.0207
     10 C         139.1661  137.8615  164.6978 C.ar    1  UNL1        0.0384
     11 C         139.1065  139.2614  165.2336 C.ar    1  UNL1        0.1387
     12 C         139.6556  140.3983  164.4238 C.ar    1  UNL1        0.0384
     13 C         140.2643  140.1356  163.0783 C.ar    1  UNL1        0.0207
     14 O         138.4979  139.5241  166.5791 O.3     1  UNL1       -0.4740
     15 C         139.3747  139.8858  167.7413 C.3     1  UNL1        0.2226
     16 C         140.8460  139.5982  167.6887 C.3     1  UNL1        0.1200
     17 N         141.8168  140.5330  168.3472 N.3     1  UNL1       -0.2696
     18 C         142.2017  141.8960  167.8532 C.3     1  UNL1        0.0722
     19 C         143.1960  142.4743  168.8160 C.3     1  UNL1        0.0188
     20 C         143.4256  141.4686  169.9050 C.3     1  UNL1        0.0188
     21 C         142.5732  140.2688  169.6153 C.3     1  UNL1        0.0722
     22 O         142.7586  137.6847  157.1604 O.3     1  UNL1       -0.4704
     23 C         142.0600  136.7857  156.1838 C.3     1  UNL1        0.2320
     24 C         142.6554  132.3307  156.4032 C.ar    1  UNL1        0.1387
     25 C         141.6483  132.9069  155.4525 C.ar    1  UNL1        0.0367
     26 C         141.4498  134.3919  155.3794 C.ar    1  UNL1        0.0024
     27 C         142.2585  135.3007  156.2570 C.ar    1  UNL1        0.0214
     28 C         143.2655  134.7245  157.2076 C.ar    1  UNL1        0.0024
     29 C         143.4640  133.2395  157.2807 C.ar    1  UNL1        0.0367
     30 C         144.0762  130.2217  155.8710 C.3     1  UNL1        0.2525
     31 O         142.8538  130.8457  156.4763 O.3     1  UNL1       -0.4714
@<TRIPOS>BOND
     1    30    31    1
     2    31    24    1
     3    24    25   ar
     4    25    26   ar
     5    26    27   ar
     6    27    23    1
     7    23    22    1
     8    22     1    1
     9     1     2   ar
    10     2     3   ar
    11     3     4   ar
    12     4     8    1
    13     8     9   ar
    14     9    10   ar
    15    10    11   ar
    16    11    14    1
    17    14    15    1
    18    15    16    1
    19    16    17    1
    20    17    18    1
    21    18    19    1
    22    19    20    1
    23    20    21    1
    24    11    12   ar
    25    12    13   ar
    26     4     5   ar
    27     5     6    2
    28     5     7   ar
    29    27    28   ar
    30    28    29   ar
    31    29    24   ar
    32     7     1   ar
    33    13     8   ar
    34    21    17    1
@<TRIPOS>MOLECULE
*****
 31 34 0 0 0
SMALL
GASTEIGER

@<TRIPOS>ATOM
      1 C         144.8212  141.1995  162.8468 C.ar    1  UNL1        0.1453
      2 C         144.5193  141.9262  161.5697 C.ar    1  UNL1        0.0561
      3 C         143.5908  141.3168  160.5615 C.ar    1  UNL1        0.0860
      4 N         142.9641  139.9807  160.8304 N.ar    1  UNL1       -0.2729
      5 C         143.2660  139.2541  162.1075 C.ar    1  UNL1        0.2679
      6 O         142.6394  137.9181  162.3763 O.2     1  UNL1       -0.2665
      7 C         144.1945  139.8635  163.1157 C.ar    1  UNL1        0.0980
      8 C         142.0356  139.3713  159.8222 C.ar    1  UNL1        0.0671
      9 C         142.5801  138.8218  158.5370 C.ar    1  UNL1        0.0207
     10 C         141.6516  138.2124  157.5289 C.ar    1  UNL1        0.0384
     11 C         140.1785  138.1525  157.8058 C.ar    1  UNL1        0.1387
     12 C         139.6341  138.7020  159.0910 C.ar    1  UNL1        0.0384
     13 C         140.5626  139.3114  160.0992 C.ar    1  UNL1        0.0207
     14 O         139.2500  137.5431  156.7976 O.3     1  UNL1       -0.4740
     15 C         139.7027  137.3521  155.3803 C.3     1  UNL1        0.2226
     16 C         140.3137  136.0491  154.9573 C.3     1  UNL1        0.1200
     17 N         141.7532  135.7608  155.2649 N.3     1  UNL1       -0.2696
     18 C         142.2669  134.6183  156.0901 C.3     1  UNL1        0.0722
     19 C         143.7630  134.7159  156.1364 C.3     1  UNL1        0.0188
     20 C         144.1739  135.9187  155.3399 C.3     1  UNL1        0.0188
     21 C         142.9318  136.5645  154.8013 C.3     1  UNL1        0.0722
     22 O         145.7497  141.8089  163.8550 O.3     1  UNL1       -0.4704
     23 C         145.2348  142.8251  164.8308 C.3     1  UNL1        0.2320
     24 C         141.0651  144.4584  164.3886 C.ar    1  UNL1        0.1387
     25 C         142.2252  145.1890  163.7801 C.ar    1  UNL1        0.0367
     26 C         143.6151  144.6446  163.9275 C.ar    1  UNL1        0.0024
     27 C         143.8449  143.3695  164.6834 C.ar    1  UNL1        0.0214
     28 C         142.6848  142.6389  165.2919 C.ar    1  UNL1        0.0024
     29 C         141.2949  143.1834  165.1445 C.ar    1  UNL1        0.0367
     30 C         138.6642  144.7822  165.3271 C.3     1  UNL1        0.2525
     31 O         139.6752  145.0028  164.2412 O.3     1  UNL1       -0.4714
@<TRIPOS>BOND
     1    30    31    1
     2    31    24    1
     3    24    25   ar
     4    25    26   ar
     5    26    27   ar
     6    27    23    1
     7    23    22    1
     8    22     1    1
     9     1     2   ar
    10     2     3   ar
    11     3     4   ar
    12     4     8    1
    13     8     9   ar
    14     9    10   ar
    15    10    11   ar
    16    11    14    1
    17    14    15    1
    18    15    16    1
    19    16    17    1
    20    17    18    1
    21    18    19    1
    22    19    20    1
    23    20    21    1
    24    11    12   ar
    25    12    13   ar
    26     4     5   ar
    27     5     6    2
    28     5     7   ar
    29    27    28   ar
    30    28    29   ar
    31    29    24   ar
    32     7     1   ar
    33    13     8   ar
    34    21    17    1
