@<TRIPOS>MOLECULE
*****
 26 29 0 0 0
SMALL
GASTEIGER

@<TRIPOS>ATOM
      1 C         143.1698  143.2687  170.6525 C.3     1  UNL1        0.0307
      2 C         142.4227  142.5175  169.5907 C.ar    1  UNL1       -0.0242
      3 C         143.0756  141.3647  168.8873 C.ar    1  UNL1        0.0160
      4 C         142.3284  140.6136  167.8255 C.ar    1  UNL1        0.0980
      5 N         142.7094  139.4440  166.9669 N.ar    1  UNL1       -0.2310
      6 C         141.5448  139.1228  166.0779 C.ar    1  UNL1        0.1205
      7 N         140.4440  140.0938  166.3869 N.ar    1  UNL1       -0.3107
      8 C         140.9284  141.0152  167.4670 C.ar    1  UNL1        0.0785
      9 C         140.2755  142.1680  168.1703 C.ar    1  UNL1        0.0142
     10 C         141.0226  142.9191  169.2322 C.ar    1  UNL1       -0.0243
     11 C         140.3697  144.0720  169.9356 C.3     1  UNL1        0.0307
     12 C         141.4903  138.0235  165.0587 C.3     1  UNL1        0.0639
     13 C         141.2719  138.3525  163.6117 C.3     1  UNL1        0.0075
     14 C         142.1720  139.3340  162.9215 C.3     1  UNL1        0.0004
     15 C         141.9536  139.6631  161.4745 C.3     1  UNL1        0.0000
     16 C         140.8350  139.0105  160.7175 C.3     1  UNL1        0.0000
     17 C         139.9348  138.0290  161.4076 C.3     1  UNL1        0.0000
     18 C         140.1533  137.7000  162.8548 C.3     1  UNL1        0.0004
     19 C         139.0957  140.1361  165.7311 C.3     1  UNL1        0.1339
     20 C         138.9370  140.7745  164.3830 C.ar    1  UNL1        0.0005
     21 C         139.8989  141.8360  163.9379 C.ar    1  UNL1       -0.0015
     22 C         139.7403  142.4744  162.5899 C.ar    1  UNL1        0.0111
     23 C         138.6198  142.0513  161.6868 C.ar    1  UNL1        0.0577
     24 CL        138.4612  142.6896  160.3387 Cl      1  UNL1       -0.0822
     25 C         137.6580  140.9898  162.1318 C.ar    1  UNL1        0.0111
     26 C         137.8166  140.3514  163.4800 C.ar    1  UNL1       -0.0015
@<TRIPOS>BOND
     1     1     2    1
     2     2     3   ar
     3     3     4   ar
     4     4     5   ar
     5     5     6   ar
     6     6    12    1
     7    12    13    1
     8    13    14    1
     9    14    15    1
    10    15    16    1
    11    16    17    1
    12    17    18    1
    13     6     7   ar
    14     7    19    1
    15    19    20    1
    16    20    21   ar
    17    21    22   ar
    18    22    23   ar
    19    23    24    1
    20    23    25   ar
    21    25    26   ar
    22     7     8   ar
    23     8     9   ar
    24     9    10   ar
    25    10    11    1
    26    10     2   ar
    27     8     4   ar
    28    18    13    1
    29    26    20   ar
@<TRIPOS>MOLECULE
*****
 26 29 0 0 0
SMALL
GASTEIGER

@<TRIPOS>ATOM
      1 C         142.3868  143.2573  170.3418 C.3     1  UNL1        0.0307
      2 C         141.9715  142.2745  169.2875 C.ar    1  UNL1       -0.0242
      3 C         142.9495  141.8472  168.2336 C.ar    1  UNL1        0.0160
      4 C         142.5342  140.8643  167.1792 C.ar    1  UNL1        0.0980
      5 N         143.2738  140.2617  166.0217 N.ar    1  UNL1       -0.2310
      6 C         142.3376  139.3338  165.3059 C.ar    1  UNL1        0.1205
      7 N         141.0193  139.3630  166.0211 N.ar    1  UNL1       -0.3107
      8 C         141.1409  140.3089  167.1788 C.ar    1  UNL1        0.0785
      9 C         140.1628  140.7363  168.2327 C.ar    1  UNL1        0.0142
     10 C         140.5781  141.7191  169.2870 C.ar    1  UNL1       -0.0243
     11 C         139.6000  142.1465  170.3410 C.3     1  UNL1        0.0307
     12 C         142.6625  138.5195  164.0887 C.3     1  UNL1        0.0639
     13 C         142.1734  138.9585  162.7403 C.3     1  UNL1        0.0075
     14 C         141.9953  137.9516  161.6428 C.3     1  UNL1        0.0004
     15 C         141.5062  138.3905  160.2945 C.3     1  UNL1        0.0000
     16 C         141.1953  139.8363  160.0435 C.3     1  UNL1        0.0000
     17 C         141.3734  140.8432  161.1410 C.3     1  UNL1        0.0000
     18 C         141.8625  140.4042  162.4894 C.3     1  UNL1        0.0004
     19 C         139.7945  138.5831  165.6446 C.3     1  UNL1        0.1339
     20 C         139.1046  138.8537  164.3405 C.ar    1  UNL1        0.0005
     21 C         138.6406  140.2416  164.0113 C.ar    1  UNL1       -0.0015
     22 C         137.9506  140.5123  162.7072 C.ar    1  UNL1        0.0111
     23 C         137.7245  139.3950  161.7322 C.ar    1  UNL1        0.0577
     24 CL        137.0346  139.6655  160.4282 Cl      1  UNL1       -0.0822
     25 C         138.1885  138.0070  162.0614 C.ar    1  UNL1        0.0111
     26 C         138.8785  137.7364  163.3655 C.ar    1  UNL1       -0.0015
@<TRIPOS>BOND
     1     1     2    1
     2     2     3   ar
     3     3     4   ar
     4     4     5   ar
     5     5     6   ar
     6     6    12    1
     7    12    13    1
     8    13    14    1
     9    14    15    1
    10    15    16    1
    11    16    17    1
    12    17    18    1
    13     6     7   ar
    14     7    19    1
    15    19    20    1
    16    20    21   ar
    17    21    22   ar
    18    22    23   ar
    19    23    24    1
    20    23    25   ar
    21    25    26   ar
    22     7     8   ar
    23     8     9   ar
    24     9    10   ar
    25    10    11    1
    26    10     2   ar
    27     8     4   ar
    28    18    13    1
    29    26    20   ar
@<TRIPOS>MOLECULE
*****
 26 29 0 0 0
SMALL
GASTEIGER

@<TRIPOS>ATOM
      1 C         140.8253  142.1580  171.1120 C.3     1  UNL1        0.0307
      2 C         140.9525  141.4017  169.8229 C.ar    1  UNL1       -0.0242
      3 C         139.7313  140.8324  169.1638 C.ar    1  UNL1        0.0160
      4 C         139.8584  140.0760  167.8747 C.ar    1  UNL1        0.0980
      5 N         138.8409  139.4059  166.9996 N.ar    1  UNL1       -0.2310
      6 C         139.5605  138.8047  165.8288 C.ar    1  UNL1        0.1205
      7 N         141.0226  139.1032  165.9803 N.ar    1  UNL1       -0.3107
      8 C         141.2068  139.8889  167.2447 C.ar    1  UNL1        0.0785
      9 C         142.4280  140.4582  167.9038 C.ar    1  UNL1        0.0142
     10 C         142.3008  141.2146  169.1929 C.ar    1  UNL1       -0.0243
     11 C         143.5221  141.7839  169.8520 C.3     1  UNL1        0.0307
     12 C         138.9288  138.0393  164.7039 C.3     1  UNL1        0.0639
     13 C         138.5383  138.7479  163.4409 C.3     1  UNL1        0.0075
     14 C         138.0712  140.1723  163.4938 C.3     1  UNL1        0.0004
     15 C         137.6807  140.8809  162.2307 C.3     1  UNL1        0.0000
     16 C         137.7573  140.1651  160.9147 C.3     1  UNL1        0.0000
     17 C         138.2244  138.7407  160.8618 C.3     1  UNL1        0.0000
     18 C         138.6149  138.0320  162.1250 C.3     1  UNL1        0.0004
     19 C         142.1098  138.6888  165.0336 C.3     1  UNL1        0.1339
     20 C         142.0129  139.0423  163.5791 C.ar    1  UNL1        0.0005
     21 C         141.7077  140.4525  163.1687 C.ar    1  UNL1       -0.0015
     22 C         141.6107  140.8061  161.7143 C.ar    1  UNL1        0.0111
     23 C         141.8190  139.7496  160.6701 C.ar    1  UNL1        0.0577
     24 CL        141.7221  140.1032  159.2156 Cl      1  UNL1       -0.0822
     25 C         142.1242  138.3395  161.0803 C.ar    1  UNL1        0.0111
     26 C         142.2212  137.9858  162.5349 C.ar    1  UNL1       -0.0015
@<TRIPOS>BOND
     1     1     2    1
     2     2     3   ar
     3     3     4   ar
     4     4     5   ar
     5     5     6   ar
     6     6    12    1
     7    12    13    1
     8    13    14    1
     9    14    15    1
    10    15    16    1
    11    16    17    1
    12    17    18    1
    13     6     7   ar
    14     7    19    1
    15    19    20    1
    16    20    21   ar
    17    21    22   ar
    18    22    23   ar
    19    23    24    1
    20    23    25   ar
    21    25    26   ar
    22     7     8   ar
    23     8     9   ar
    24     9    10   ar
    25    10    11    1
    26    10     2   ar
    27     8     4   ar
    28    18    13    1
    29    26    20   ar
@<TRIPOS>MOLECULE
*****
 26 29 0 0 0
SMALL
GASTEIGER

@<TRIPOS>ATOM
      1 C         140.5750  142.1111  170.8884 C.3     1  UNL1        0.0307
      2 C         140.7783  141.3187  169.6311 C.ar    1  UNL1       -0.0242
      3 C         139.5963  140.7498  168.9038 C.ar    1  UNL1        0.0160
      4 C         139.7996  139.9574  167.6465 C.ar    1  UNL1        0.0980
      5 N         138.8340  139.2790  166.7204 N.ar    1  UNL1       -0.2310
      6 C         139.6226  138.6363  165.6182 C.ar    1  UNL1        0.1205
      7 N         141.0755  138.9175  165.8630 N.ar    1  UNL1       -0.3107
      8 C         141.1849  139.7340  167.1165 C.ar    1  UNL1        0.0785
      9 C         142.3669  140.3029  167.8438 C.ar    1  UNL1        0.0142
     10 C         142.1636  141.0953  169.1012 C.ar    1  UNL1       -0.0243
     11 C         143.3458  141.6642  169.8285 C.3     1  UNL1        0.0307
     12 C         139.0575  137.8503  164.4723 C.3     1  UNL1        0.0639
     13 C         138.8289  138.5151  163.1473 C.3     1  UNL1        0.0075
     14 C         139.3825  137.9021  161.8952 C.3     1  UNL1        0.0004
     15 C         139.1538  138.5669  160.5702 C.3     1  UNL1        0.0000
     16 C         138.3716  139.8448  160.4972 C.3     1  UNL1        0.0000
     17 C         137.8179  140.4577  161.7493 C.3     1  UNL1        0.0000
     18 C         138.0466  139.7929  163.0744 C.3     1  UNL1        0.0004
     19 C         142.2185  138.4621  165.0049 C.3     1  UNL1        0.1339
     20 C         142.9242  139.4412  164.1142 C.ar    1  UNL1        0.0005
     21 C         142.1722  140.1335  163.0163 C.ar    1  UNL1       -0.0015
     22 C         142.8778  141.1126  162.1256 C.ar    1  UNL1        0.0111
     23 C         144.3355  141.3994  162.3326 C.ar    1  UNL1        0.0577
     24 CL        145.0413  142.3784  161.4419 Cl      1  UNL1       -0.0822
     25 C         145.0876  140.7071  163.4304 C.ar    1  UNL1        0.0111
     26 C         144.3819  139.7279  164.3212 C.ar    1  UNL1       -0.0015
@<TRIPOS>BOND
     1     1     2    1
     2     2     3   ar
     3     3     4   ar
     4     4     5   ar
     5     5     6   ar
     6     6    12    1
     7    12    13    1
     8    13    14    1
     9    14    15    1
    10    15    16    1
    11    16    17    1
    12    17    18    1
    13     6     7   ar
    14     7    19    1
    15    19    20    1
    16    20    21   ar
    17    21    22   ar
    18    22    23   ar
    19    23    24    1
    20    23    25   ar
    21    25    26   ar
    22     7     8   ar
    23     8     9   ar
    24     9    10   ar
    25    10    11    1
    26    10     2   ar
    27     8     4   ar
    28    18    13    1
    29    26    20   ar
@<TRIPOS>MOLECULE
*****
 26 29 0 0 0
SMALL
GASTEIGER

@<TRIPOS>ATOM
      1 C         139.8988  143.9863  156.4131 C.3     1  UNL1        0.0307
      2 C         139.8112  143.8140  157.9006 C.ar    1  UNL1       -0.0242
      3 C         138.7941  142.8817  158.4891 C.ar    1  UNL1        0.0160
      4 C         138.7065  142.7094  159.9766 C.ar    1  UNL1        0.0980
      5 N         137.8127  141.8680  160.8386 N.ar    1  UNL1       -0.2310
      6 C         138.1897  142.1081  162.2704 C.ar    1  UNL1        0.1205
      7 N         139.3166  143.0979  162.2933 N.ar    1  UNL1       -0.3107
      8 C         139.6360  143.4695  160.8756 C.ar    1  UNL1        0.0785
      9 C         140.6530  144.4019  160.2872 C.ar    1  UNL1        0.0142
     10 C         140.7406  144.5741  158.7997 C.ar    1  UNL1       -0.0243
     11 C         141.7577  145.5065  158.2112 C.3     1  UNL1        0.0307
     12 C         137.5519  141.4703  163.4690 C.3     1  UNL1        0.0639
     13 C         138.0936  140.1802  164.0094 C.3     1  UNL1        0.0075
     14 C         138.6288  139.1397  163.0708 C.3     1  UNL1        0.0004
     15 C         139.1705  137.8496  163.6112 C.3     1  UNL1        0.0000
     16 C         139.1770  137.5998  165.0903 C.3     1  UNL1        0.0000
     17 C         138.6418  138.6403  166.0289 C.3     1  UNL1        0.0000
     18 C         138.1001  139.9305  165.4885 C.3     1  UNL1        0.0004
     19 C         140.0035  143.6237  163.5187 C.3     1  UNL1        0.1339
     20 C         140.5882  142.6703  164.5182 C.ar    1  UNL1        0.0005
     21 C         140.3436  142.8765  165.9837 C.ar    1  UNL1       -0.0015
     22 C         140.9283  141.9231  166.9832 C.ar    1  UNL1        0.0111
     23 C         141.7577  140.7634  166.5173 C.ar    1  UNL1        0.0577
     24 CL        142.3425  139.8100  167.5168 Cl      1  UNL1       -0.0822
     25 C         142.0024  140.5571  165.0519 C.ar    1  UNL1        0.0111
     26 C         141.4177  141.5106  164.0523 C.ar    1  UNL1       -0.0015
@<TRIPOS>BOND
     1     1     2    1
     2     2     3   ar
     3     3     4   ar
     4     4     5   ar
     5     5     6   ar
     6     6    12    1
     7    12    13    1
     8    13    14    1
     9    14    15    1
    10    15    16    1
    11    16    17    1
    12    17    18    1
    13     6     7   ar
    14     7    19    1
    15    19    20    1
    16    20    21   ar
    17    21    22   ar
    18    22    23   ar
    19    23    24    1
    20    23    25   ar
    21    25    26   ar
    22     7     8   ar
    23     8     9   ar
    24     9    10   ar
    25    10    11    1
    26    10     2   ar
    27     8     4   ar
    28    18    13    1
    29    26    20   ar
@<TRIPOS>MOLECULE
*****
 26 29 0 0 0
SMALL
GASTEIGER

@<TRIPOS>ATOM
      1 C         142.2792  140.3761  170.9803 C.3     1  UNL1        0.0307
      2 C         142.3102  140.6505  169.5059 C.ar    1  UNL1       -0.0242
      3 C         141.5301  139.7813  168.5647 C.ar    1  UNL1        0.0160
      4 C         141.5611  140.0558  167.0904 C.ar    1  UNL1        0.0980
      5 N         140.8990  139.3757  165.9287 N.ar    1  UNL1       -0.2310
      6 C         141.3011  140.0991  164.6777 C.ar    1  UNL1        0.1205
      7 N         142.2116  141.2261  165.0661 N.ar    1  UNL1       -0.3107
      8 C         142.3723  141.1993  166.5572 C.ar    1  UNL1        0.0785
      9 C         143.1524  142.0684  167.4984 C.ar    1  UNL1        0.0142
     10 C         143.1214  141.7940  168.9728 C.ar    1  UNL1       -0.0243
     11 C         143.9016  142.6632  169.9140 C.3     1  UNL1        0.0307
     12 C         140.8685  139.7557  163.2830 C.3     1  UNL1        0.0639
     13 C         139.9677  140.6864  162.5266 C.3     1  UNL1        0.0075
     14 C         140.2195  140.9575  161.0729 C.3     1  UNL1        0.0004
     15 C         139.3186  141.8882  160.3165 C.3     1  UNL1        0.0000
     16 C         138.1659  142.5479  161.0137 C.3     1  UNL1        0.0000
     17 C         137.9141  142.2768  162.4674 C.3     1  UNL1        0.0000
     18 C         138.8150  141.3461  163.2238 C.3     1  UNL1        0.0004
     19 C         142.8494  142.2076  164.1281 C.3     1  UNL1        0.1339
     20 C         142.0222  143.2878  163.4965 C.ar    1  UNL1        0.0005
     21 C         142.2616  143.6772  162.0678 C.ar    1  UNL1       -0.0015
     22 C         141.4345  144.7574  161.4361 C.ar    1  UNL1        0.0111
     23 C         140.3679  145.4482  162.2331 C.ar    1  UNL1        0.0577
     24 CL        139.5408  146.5283  161.6014 Cl      1  UNL1       -0.0822
     25 C         140.1284  145.0588  163.6617 C.ar    1  UNL1        0.0111
     26 C         140.9556  143.9786  164.2934 C.ar    1  UNL1       -0.0015
@<TRIPOS>BOND
     1     1     2    1
     2     2     3   ar
     3     3     4   ar
     4     4     5   ar
     5     5     6   ar
     6     6    12    1
     7    12    13    1
     8    13    14    1
     9    14    15    1
    10    15    16    1
    11    16    17    1
    12    17    18    1
    13     6     7   ar
    14     7    19    1
    15    19    20    1
    16    20    21   ar
    17    21    22   ar
    18    22    23   ar
    19    23    24    1
    20    23    25   ar
    21    25    26   ar
    22     7     8   ar
    23     8     9   ar
    24     9    10   ar
    25    10    11    1
    26    10     2   ar
    27     8     4   ar
    28    18    13    1
    29    26    20   ar
@<TRIPOS>MOLECULE
*****
 26 29 0 0 0
SMALL
GASTEIGER

@<TRIPOS>ATOM
      1 C         141.8034  139.5679  169.5908 C.3     1  UNL1        0.0307
      2 C         141.2467  140.4505  168.5134 C.ar    1  UNL1       -0.0242
      3 C         140.1608  139.9409  167.6128 C.ar    1  UNL1        0.0160
      4 C         139.6040  140.8236  166.5354 C.ar    1  UNL1        0.0980
      5 N         138.5384  140.5981  165.5039 N.ar    1  UNL1       -0.2310
      6 C         138.4091  141.8511  164.6896 C.ar    1  UNL1        0.1205
      7 N         139.3947  142.8510  165.2177 N.ar    1  UNL1       -0.3107
      8 C         140.1332  142.2159  166.3585 C.ar    1  UNL1        0.0785
      9 C         141.2191  142.7256  167.2590 C.ar    1  UNL1        0.0142
     10 C         141.7758  141.8429  168.3364 C.ar    1  UNL1       -0.0243
     11 C         142.8618  142.3526  169.2370 C.3     1  UNL1        0.0307
     12 C         137.4607  142.0665  163.5475 C.3     1  UNL1        0.0639
     13 C         137.8006  141.5469  162.1821 C.3     1  UNL1        0.0075
     14 C         138.1408  142.5043  161.0786 C.3     1  UNL1        0.0004
     15 C         138.4808  141.9847  159.7132 C.3     1  UNL1        0.0000
     16 C         138.4805  140.5077  159.4512 C.3     1  UNL1        0.0000
     17 C         138.1403  139.5504  160.5547 C.3     1  UNL1        0.0000
     18 C         137.8004  140.0700  161.9202 C.3     1  UNL1        0.0004
     19 C         139.6049  144.2417  164.6966 C.3     1  UNL1        0.1339
     20 C         140.1249  144.4507  163.3053 C.ar    1  UNL1        0.0005
     21 C         139.5752  145.5597  162.4578 C.ar    1  UNL1       -0.0015
     22 C         140.0952  145.7688  161.0665 C.ar    1  UNL1        0.0111
     23 C         141.1649  144.8689  160.5225 C.ar    1  UNL1        0.0577
     24 CL        141.6850  145.0780  159.1312 Cl      1  UNL1       -0.0822
     25 C         141.7147  143.7600  161.3698 C.ar    1  UNL1        0.0111
     26 C         141.1947  143.5509  162.7613 C.ar    1  UNL1       -0.0015
@<TRIPOS>BOND
     1     1     2    1
     2     2     3   ar
     3     3     4   ar
     4     4     5   ar
     5     5     6   ar
     6     6    12    1
     7    12    13    1
     8    13    14    1
     9    14    15    1
    10    15    16    1
    11    16    17    1
    12    17    18    1
    13     6     7   ar
    14     7    19    1
    15    19    20    1
    16    20    21   ar
    17    21    22   ar
    18    22    23   ar
    19    23    24    1
    20    23    25   ar
    21    25    26   ar
    22     7     8   ar
    23     8     9   ar
    24     9    10   ar
    25    10    11    1
    26    10     2   ar
    27     8     4   ar
    28    18    13    1
    29    26    20   ar
@<TRIPOS>MOLECULE
*****
 26 29 0 0 0
SMALL
GASTEIGER

@<TRIPOS>ATOM
      1 C         140.6024  143.7549  156.0096 C.3     1  UNL1        0.0307
      2 C         140.2781  143.7611  157.4741 C.ar    1  UNL1       -0.0242
      3 C         139.3427  142.7338  158.0395 C.ar    1  UNL1        0.0160
      4 C         139.0184  142.7400  159.5040 C.ar    1  UNL1        0.0980
      5 N         138.1378  141.8599  160.3408 N.ar    1  UNL1       -0.2310
      6 C         138.2047  142.3496  161.7570 C.ar    1  UNL1        0.1205
      7 N         139.1265  143.5323  161.7956 N.ar    1  UNL1       -0.3107
      8 C         139.6294  143.7736  160.4031 C.ar    1  UNL1        0.0785
      9 C         140.5648  144.8008  159.8377 C.ar    1  UNL1        0.0142
     10 C         140.8891  144.7946  158.3732 C.ar    1  UNL1       -0.0243
     11 C         141.8246  145.8220  157.8079 C.3     1  UNL1        0.0307
     12 C         137.4773  141.7601  162.9291 C.3     1  UNL1        0.0639
     13 C         138.0033  140.5219  163.5926 C.3     1  UNL1        0.0075
     14 C         138.2845  140.5224  165.0660 C.3     1  UNL1        0.0004
     15 C         138.8104  139.2843  165.7296 C.3     1  UNL1        0.0000
     16 C         139.0553  138.0456  164.9197 C.3     1  UNL1        0.0000
     17 C         138.7742  138.0452  163.4463 C.3     1  UNL1        0.0000
     18 C         138.2482  139.2834  162.7827 C.3     1  UNL1        0.0004
     19 C         139.4829  144.3331  163.0128 C.3     1  UNL1        0.1339
     20 C         140.8311  144.1699  163.6497 C.ar    1  UNL1        0.0005
     21 C         141.9192  145.1632  163.3674 C.ar    1  UNL1       -0.0015
     22 C         143.2674  145.0001  164.0042 C.ar    1  UNL1        0.0111
     23 C         143.5277  143.8437  164.9234 C.ar    1  UNL1        0.0577
     24 CL        144.8759  143.6805  165.5603 Cl      1  UNL1       -0.0822
     25 C         142.4398  142.8504  165.2058 C.ar    1  UNL1        0.0111
     26 C         141.0915  143.0135  164.5689 C.ar    1  UNL1       -0.0015
@<TRIPOS>BOND
     1     1     2    1
     2     2     3   ar
     3     3     4   ar
     4     4     5   ar
     5     5     6   ar
     6     6    12    1
     7    12    13    1
     8    13    14    1
     9    14    15    1
    10    15    16    1
    11    16    17    1
    12    17    18    1
    13     6     7   ar
    14     7    19    1
    15    19    20    1
    16    20    21   ar
    17    21    22   ar
    18    22    23   ar
    19    23    24    1
    20    23    25   ar
    21    25    26   ar
    22     7     8   ar
    23     8     9   ar
    24     9    10   ar
    25    10    11    1
    26    10     2   ar
    27     8     4   ar
    28    18    13    1
    29    26    20   ar
@<TRIPOS>MOLECULE
*****
 26 29 0 0 0
SMALL
GASTEIGER

@<TRIPOS>ATOM
      1 C         139.7472  142.9787  170.6986 C.3     1  UNL1        0.0307
      2 C         140.3724  142.2312  169.5583 C.ar    1  UNL1       -0.0242
      3 C         141.5036  142.8463  168.7888 C.ar    1  UNL1        0.0160
      4 C         142.1288  142.0989  167.6484 C.ar    1  UNL1        0.0980
      5 N         143.2497  142.4473  166.7143 N.ar    1  UNL1       -0.2310
      6 C         143.4364  141.3001  165.7661 C.ar    1  UNL1        0.1205
      7 N         142.4310  140.2427  166.1142 N.ar    1  UNL1       -0.3107
      8 C         141.6229  140.7364  167.2775 C.ar    1  UNL1        0.0785
      9 C         140.4917  140.1213  168.0470 C.ar    1  UNL1        0.0142
     10 C         139.8665  140.8687  169.1874 C.ar    1  UNL1       -0.0243
     11 C         138.7353  140.2536  169.9569 C.3     1  UNL1        0.0307
     12 C         144.4505  141.2237  164.6634 C.3     1  UNL1        0.0639
     13 C         144.1157  141.7490  163.2989 C.3     1  UNL1        0.0075
     14 C         144.3784  140.9068  162.0858 C.3     1  UNL1        0.0004
     15 C         144.0437  141.4322  160.7213 C.3     1  UNL1        0.0000
     16 C         143.4462  142.7998  160.5699 C.3     1  UNL1        0.0000
     17 C         143.1836  143.6420  161.7831 C.3     1  UNL1        0.0000
     18 C         143.5183  143.1165  163.1476 C.3     1  UNL1        0.0004
     19 C         142.2631  138.9233  165.4208 C.3     1  UNL1        0.1339
     20 C         141.1150  138.7116  164.4791 C.ar    1  UNL1        0.0005
     21 C         139.8916  137.9768  164.9412 C.ar    1  UNL1       -0.0015
     22 C         138.7434  137.7650  163.9995 C.ar    1  UNL1        0.0111
     23 C         138.8185  138.2881  162.5956 C.ar    1  UNL1        0.0577
     24 CL        137.6704  138.0764  161.6539 Cl      1  UNL1       -0.0822
     25 C         140.0418  139.0228  162.1335 C.ar    1  UNL1        0.0111
     26 C         141.1901  139.2346  163.0752 C.ar    1  UNL1       -0.0015
@<TRIPOS>BOND
     1     1     2    1
     2     2     3   ar
     3     3     4   ar
     4     4     5   ar
     5     5     6   ar
     6     6    12    1
     7    12    13    1
     8    13    14    1
     9    14    15    1
    10    15    16    1
    11    16    17    1
    12    17    18    1
    13     6     7   ar
    14     7    19    1
    15    19    20    1
    16    20    21   ar
    17    21    22   ar
    18    22    23   ar
    19    23    24    1
    20    23    25   ar
    21    25    26   ar
    22     7     8   ar
    23     8     9   ar
    24     9    10   ar
    25    10    11    1
    26    10     2   ar
    27     8     4   ar
    28    18    13    1
    29    26    20   ar
