@<TRIPOS>MOLECULE
*****
 38 42 0 0 0
SMALL
GASTEIGER

@<TRIPOS>ATOM
      1 O         142.3229  139.2452  160.3191 O.2     1  UNL1       -0.2733
      2 C         141.1777  138.6552  159.5506 C.2     1  UNL1        0.2425
      3 N         139.8872  138.3438  160.2489 N.am    1  UNL1       -0.3018
      4 H         139.1355  137.9567  159.7446 H       1  UNL1        0.1495
      5 C         139.7419  138.6224  161.7157 C.3     1  UNL1        0.1035
      6 C         140.1308  137.9061  162.9749 C.3     1  UNL1        0.0933
      7 N         139.5364  139.0163  163.7900 N.3     1  UNL1       -0.2711
      8 C         139.1476  139.7325  162.5307 C.3     1  UNL1        0.0933
      9 C         139.3912  139.2949  165.2567 C.3     1  UNL1        0.0578
     10 C         138.2418  138.7080  166.0213 C.3     1  UNL1        0.0187
     11 C         138.0965  138.9865  167.4880 C.3     1  UNL1        0.0331
     12 C         139.1005  139.8519  168.1902 C.3     1  UNL1        0.1139
     13 O         138.1901  139.5263  169.3369 O.3     1  UNL1       -0.3821
     14 C         140.2499  140.4388  167.4255 C.3     1  UNL1        0.0331
     15 C         140.3952  140.1603  165.9588 C.3     1  UNL1        0.0187
     16 H         137.4701  138.9554  169.0261 H       1  UNL1        0.2107
     17 C         139.7884  140.6042  169.2905 C.ar    1  UNL1        0.0507
     18 C         140.3482  141.9925  169.1933 C.ar    1  UNL1        0.0272
     19 C         140.9430  142.3466  170.5241 C.ar    1  UNL1        0.1076
     20 N         140.7507  141.1772  171.4437 N.ar    1  UNL1       -0.2079
     21 S         140.0371  140.1005  170.6813 S.2     1  UNL1        0.0109
     22 C         141.3230  138.3768  158.0839 C.3     1  UNL1        0.1747
     23 N         142.1092  137.1862  157.6208 N.pl3   1  UNL1       -0.3106
     24 H         142.8745  136.8653  158.1505 H       1  UNL1        0.1486
     25 C         141.7293  136.4845  156.3506 C.ar    1  UNL1        0.1320
     26 N         140.7291  137.1053  155.4211 N.ar    1  UNL1       -0.2092
     27 C         140.3493  136.4036  154.1509 C.ar    1  UNL1        0.2000
     28 N         140.9696  135.0810  153.8104 N.ar    1  UNL1       -0.2239
     29 C         141.9698  134.4602  154.7399 C.ar    1  UNL1        0.0857
     30 C         142.5902  133.1376  154.3993 C.ar    1  UNL1        0.0192
     31 C         143.5904  132.5168  155.3289 C.ar    1  UNL1        0.0054
     32 C         143.9702  133.2185  156.5991 C.ar    1  UNL1        0.0716
     33 C         143.3499  134.5410  156.9397 C.ar    1  UNL1        0.0081
     34 C         142.3496  135.1619  156.0100 C.ar    1  UNL1        0.0491
     35 C         144.9704  132.5976  157.5287 C.3     1  UNL1        0.4186
     36 F         145.9707  131.9768  158.4583 F       1  UNL1       -0.1659
     37 F         145.3977  131.6574  156.4409 F       1  UNL1       -0.1659
     38 F         144.5431  133.5379  158.6164 F       1  UNL1       -0.1659
@<TRIPOS>BOND
     1     1     2    2
     2     2    22    1
     3    22    23    1
     4    23    25    1
     5    25    26   ar
     6    26    27   ar
     7    27    28   ar
     8    28    29   ar
     9    29    30   ar
    10    30    31   ar
    11    31    32   ar
    12    32    35    1
    13    35    36    1
    14    35    37    1
    15    35    38    1
    16    32    33   ar
    17    33    34   ar
    18     2     3   am
    19     3     5    1
    20     5     6    1
    21     6     7    1
    22     9     7    1
    23     9    10    1
    24    10    11    1
    25    11    12    1
    26    12    13    1
    27    12    17    1
    28    17    18   ar
    29    18    19   ar
    30    19    20   ar
    31    20    21   ar
    32    12    14    1
    33    14    15    1
    34     7     8    1
    35    34    25   ar
    36     8     5    1
    37    34    29   ar
    38    15     9    1
    39    21    17   ar
    40    23    24    1
    41     3     4    1
    42    13    16    1
@<TRIPOS>MOLECULE
*****
 38 42 0 0 0
SMALL
GASTEIGER

@<TRIPOS>ATOM
      1 O         141.5312  139.9662  159.4745 O.2     1  UNL1       -0.2733
      2 C         142.8059  139.3402  158.9915 C.2     1  UNL1        0.2425
      3 N         143.8843  138.9831  159.9711 N.am    1  UNL1       -0.3018
      4 H         144.7209  138.5722  159.6541 H       1  UNL1        0.1495
      5 C         143.6879  139.2520  161.4337 C.3     1  UNL1        0.1035
      6 C         144.1970  140.2791  162.4010 C.3     1  UNL1        0.0933
      7 N         143.4101  139.6322  163.5021 N.3     1  UNL1       -0.2711
      8 C         142.9010  138.6050  162.5348 C.3     1  UNL1        0.0933
      9 C         143.2137  139.9010  164.9647 C.3     1  UNL1        0.0578
     10 C         143.2678  138.7704  165.9489 C.3     1  UNL1        0.0187
     11 C         143.0714  139.0392  167.4116 C.3     1  UNL1        0.0331
     12 C         142.8208  140.4387  167.8899 C.3     1  UNL1        0.1139
     13 O         142.7834  139.7056  169.1980 O.3     1  UNL1       -0.3821
     14 C         142.7667  141.5693  166.9055 C.3     1  UNL1        0.0331
     15 C         142.9631  141.3005  165.4430 C.3     1  UNL1        0.0187
     16 H         142.9345  138.7601  169.0432 H       1  UNL1        0.2107
     17 C         142.5573  141.5835  168.8225 C.ar    1  UNL1        0.0507
     18 C         141.2548  142.3107  168.9798 C.ar    1  UNL1        0.0272
     19 C         141.4425  143.3788  170.0161 C.ar    1  UNL1        0.1076
     20 N         142.8610  143.3117  170.4992 N.ar    1  UNL1       -0.2079
     21 S         143.5499  142.2022  169.7616 S.2     1  UNL1        0.0109
     22 C         143.0023  139.0713  157.5289 C.3     1  UNL1        0.1747
     23 N         143.4158  137.7057  157.0663 N.pl3   1  UNL1       -0.3106
     24 H         144.3022  137.3517  157.3076 H       1  UNL1        0.1486
     25 C         142.4788  136.8795  156.2359 C.ar    1  UNL1        0.1320
     26 N         141.3824  137.5439  155.4571 N.ar    1  UNL1       -0.2092
     27 C         140.4455  136.7176  154.6268 C.ar    1  UNL1        0.2000
     28 N         140.6050  135.2270  154.5752 N.ar    1  UNL1       -0.2239
     29 C         141.7014  134.5626  155.3540 C.ar    1  UNL1        0.0857
     30 C         141.8608  133.0720  155.3024 C.ar    1  UNL1        0.0192
     31 C         142.9572  132.4076  156.0811 C.ar    1  UNL1        0.0054
     32 C         143.8942  133.2339  156.9115 C.ar    1  UNL1        0.0716
     33 C         143.7347  134.7245  156.9631 C.ar    1  UNL1        0.0081
     34 C         142.6383  135.3889  156.1843 C.ar    1  UNL1        0.0491
     35 C         144.9906  132.5695  157.6903 C.3     1  UNL1        0.4186
     36 F         146.0870  131.9050  158.4690 F       1  UNL1       -0.1659
     37 F         144.7431  133.5047  158.8366 F       1  UNL1       -0.1659
     38 F         145.2380  131.6343  156.5440 F       1  UNL1       -0.1659
@<TRIPOS>BOND
     1     1     2    2
     2     2    22    1
     3    22    23    1
     4    23    25    1
     5    25    26   ar
     6    26    27   ar
     7    27    28   ar
     8    28    29   ar
     9    29    30   ar
    10    30    31   ar
    11    31    32   ar
    12    32    35    1
    13    35    36    1
    14    35    37    1
    15    35    38    1
    16    32    33   ar
    17    33    34   ar
    18     2     3   am
    19     3     5    1
    20     5     6    1
    21     6     7    1
    22     9     7    1
    23     9    10    1
    24    10    11    1
    25    11    12    1
    26    12    13    1
    27    12    17    1
    28    17    18   ar
    29    18    19   ar
    30    19    20   ar
    31    20    21   ar
    32    12    14    1
    33    14    15    1
    34     7     8    1
    35    34    25   ar
    36     8     5    1
    37    34    29   ar
    38    15     9    1
    39    21    17   ar
    40    23    24    1
    41     3     4    1
    42    13    16    1
@<TRIPOS>MOLECULE
*****
 38 42 0 0 0
SMALL
GASTEIGER

@<TRIPOS>ATOM
      1 O         143.8953  138.7803  159.6569 O.2     1  UNL1       -0.2733
      2 C         142.5542  138.4704  159.0606 C.2     1  UNL1        0.2425
      3 N         141.3419  138.3933  159.9407 N.am    1  UNL1       -0.3018
      4 H         140.4617  138.1899  159.5494 H       1  UNL1        0.1495
      5 C         141.4708  138.6260  161.4170 C.3     1  UNL1        0.1035
      6 C         141.3371  137.7699  162.6413 C.3     1  UNL1        0.0933
      7 N         141.6531  138.9552  163.5046 N.3     1  UNL1       -0.2711
      8 C         141.7867  139.8113  162.2802 C.3     1  UNL1        0.0933
      9 C         141.7820  139.1880  164.9808 C.3     1  UNL1        0.0578
     10 C         142.9666  138.6467  165.7248 C.3     1  UNL1        0.0187
     11 C         143.0955  138.8794  167.2010 C.3     1  UNL1        0.0331
     12 C         142.0398  139.6535  167.9333 C.3     1  UNL1        0.1139
     13 O         142.9700  139.3436  169.0685 O.3     1  UNL1       -0.3821
     14 C         140.8551  140.1949  167.1892 C.3     1  UNL1        0.0331
     15 C         140.7262  139.9621  165.7130 C.3     1  UNL1        0.0187
     16 H         143.7241  138.8309  168.7378 H       1  UNL1        0.2107
     17 C         141.3071  140.3200  169.0597 C.ar    1  UNL1        0.0507
     18 C         141.9268  141.1432  170.1499 C.ar    1  UNL1        0.0272
     19 C         140.8287  141.6122  171.0577 C.ar    1  UNL1        0.1076
     20 N         139.5303  141.0789  170.5286 N.ar    1  UNL1       -0.2079
     21 S         139.8260  140.2803  169.2939 S.2     1  UNL1        0.0109
     22 C         142.4253  138.2377  157.5844 C.3     1  UNL1        0.1747
     23 N         143.2781  137.2037  156.9109 N.pl3   1  UNL1       -0.3106
     24 H         144.1728  136.9965  157.2656 H       1  UNL1        0.1486
     25 C         142.7676  136.4853  155.6971 C.ar    1  UNL1        0.1320
     26 N         141.9631  137.2260  154.6703 N.ar    1  UNL1       -0.2092
     27 C         141.4526  136.5076  153.4565 C.ar    1  UNL1        0.2000
     28 N         141.7466  135.0486  153.2695 N.ar    1  UNL1       -0.2239
     29 C         142.5510  134.3080  154.2962 C.ar    1  UNL1        0.0857
     30 C         142.8450  132.8490  154.1092 C.ar    1  UNL1        0.0192
     31 C         143.6494  132.1084  155.1360 C.ar    1  UNL1        0.0054
     32 C         144.1600  132.8268  156.3499 C.ar    1  UNL1        0.0716
     33 C         143.8660  134.2857  156.5369 C.ar    1  UNL1        0.0081
     34 C         143.0615  135.0264  155.5100 C.ar    1  UNL1        0.0491
     35 C         144.9644  132.0861  157.3766 C.3     1  UNL1        0.4186
     36 F         145.7689  131.3455  158.4035 F       1  UNL1       -0.1659
     37 F         145.2591  131.0126  156.3714 F       1  UNL1       -0.1659
     38 F         144.6697  133.1597  158.3819 F       1  UNL1       -0.1659
@<TRIPOS>BOND
     1     1     2    2
     2     2    22    1
     3    22    23    1
     4    23    25    1
     5    25    26   ar
     6    26    27   ar
     7    27    28   ar
     8    28    29   ar
     9    29    30   ar
    10    30    31   ar
    11    31    32   ar
    12    32    35    1
    13    35    36    1
    14    35    37    1
    15    35    38    1
    16    32    33   ar
    17    33    34   ar
    18     2     3   am
    19     3     5    1
    20     5     6    1
    21     6     7    1
    22     9     7    1
    23     9    10    1
    24    10    11    1
    25    11    12    1
    26    12    13    1
    27    12    17    1
    28    17    18   ar
    29    18    19   ar
    30    19    20   ar
    31    20    21   ar
    32    12    14    1
    33    14    15    1
    34     7     8    1
    35    34    25   ar
    36     8     5    1
    37    34    29   ar
    38    15     9    1
    39    21    17   ar
    40    23    24    1
    41     3     4    1
    42    13    16    1
@<TRIPOS>MOLECULE
*****
 38 42 0 0 0
SMALL
GASTEIGER

@<TRIPOS>ATOM
      1 O         139.6432  145.3791  160.1639 O.2     1  UNL1       -0.2733
      2 C         140.9572  145.3658  159.4403 C.2     1  UNL1        0.2425
      3 N         142.1821  144.8294  160.1198 N.am    1  UNL1       -0.3018
      4 H         143.0445  144.8207  159.6449 H       1  UNL1        0.1495
      5 C         142.0932  144.3063  161.5229 C.3     1  UNL1        0.1035
      6 C         141.9201  142.9503  162.1403 C.3     1  UNL1        0.0933
      7 N         141.9674  143.5666  163.5071 N.3     1  UNL1       -0.2711
      8 C         142.1405  144.9226  162.8896 C.3     1  UNL1        0.0933
      9 C         141.8785  143.0436  164.9101 C.3     1  UNL1        0.0578
     10 C         143.1301  142.7180  165.6699 C.3     1  UNL1        0.0187
     11 C         143.0412  142.1950  167.0730 C.3     1  UNL1        0.0331
     12 C         141.7006  141.9975  167.7162 C.3     1  UNL1        0.1139
     13 O         142.5945  141.5493  168.8342 O.3     1  UNL1       -0.3821
     14 C         140.4489  142.3230  166.9563 C.3     1  UNL1        0.0331
     15 C         140.5378  142.8460  165.5533 C.3     1  UNL1        0.0187
     16 H         143.5211  141.6231  168.5568 H       1  UNL1        0.2107
     17 C         140.6705  141.6443  168.7477 C.ar    1  UNL1        0.0507
     18 C         139.8558  140.3853  168.7852 C.ar    1  UNL1        0.0272
     19 C         138.9559  140.4511  169.9835 C.ar    1  UNL1        0.1076
     20 N         139.2145  141.7507  170.6866 N.ar    1  UNL1       -0.2079
     21 S         140.2740  142.4881  169.9228 S.2     1  UNL1        0.0109
     22 C         141.0461  145.8889  158.0373 C.3     1  UNL1        0.1747
     23 N         140.3481  145.1679  156.9224 N.pl3   1  UNL1       -0.3106
     24 H         139.5399  144.6376  157.1090 H       1  UNL1        0.1486
     25 C         140.8817  145.2547  155.5232 C.ar    1  UNL1        0.1320
     26 N         141.6575  144.1091  154.9438 N.ar    1  UNL1       -0.2092
     27 C         142.1910  144.1961  153.5446 C.ar    1  UNL1        0.2000
     28 N         141.9487  145.4286  152.7248 N.ar    1  UNL1       -0.2239
     29 C         141.1729  146.5742  153.3041 C.ar    1  UNL1        0.0857
     30 C         140.9307  147.8068  152.4843 C.ar    1  UNL1        0.0192
     31 C         140.1549  148.9524  153.0637 C.ar    1  UNL1        0.0054
     32 C         139.6214  148.8655  154.4629 C.ar    1  UNL1        0.0716
     33 C         139.8636  147.6330  155.2827 C.ar    1  UNL1        0.0081
     34 C         140.6394  146.4873  154.7033 C.ar    1  UNL1        0.0491
     35 C         138.8456  150.0111  155.0423 C.3     1  UNL1        0.4186
     36 F         138.0698  151.1568  155.6217 F       1  UNL1       -0.1659
     37 F         139.1133  150.8175  153.8061 F       1  UNL1       -0.1659
     38 F         138.5779  149.2048  156.2784 F       1  UNL1       -0.1659
@<TRIPOS>BOND
     1     1     2    2
     2     2    22    1
     3    22    23    1
     4    23    25    1
     5    25    26   ar
     6    26    27   ar
     7    27    28   ar
     8    28    29   ar
     9    29    30   ar
    10    30    31   ar
    11    31    32   ar
    12    32    35    1
    13    35    36    1
    14    35    37    1
    15    35    38    1
    16    32    33   ar
    17    33    34   ar
    18     2     3   am
    19     3     5    1
    20     5     6    1
    21     6     7    1
    22     9     7    1
    23     9    10    1
    24    10    11    1
    25    11    12    1
    26    12    13    1
    27    12    17    1
    28    17    18   ar
    29    18    19   ar
    30    19    20   ar
    31    20    21   ar
    32    12    14    1
    33    14    15    1
    34     7     8    1
    35    34    25   ar
    36     8     5    1
    37    34    29   ar
    38    15     9    1
    39    21    17   ar
    40    23    24    1
    41     3     4    1
    42    13    16    1
@<TRIPOS>MOLECULE
*****
 38 42 0 0 0
SMALL
GASTEIGER

@<TRIPOS>ATOM
      1 O         137.9612  139.6065  159.7075 O.2     1  UNL1       -0.2733
      2 C         139.2595  139.0343  159.2204 C.2     1  UNL1        0.2425
      3 N         140.3395  138.6843  160.2008 N.am    1  UNL1       -0.3018
      4 H         141.1916  138.3087  159.8811 H       1  UNL1        0.1495
      5 C         140.1213  138.9064  161.6681 C.3     1  UNL1        0.1035
      6 C         140.2171  138.0506  162.8962 C.3     1  UNL1        0.0933
      7 N         139.8125  139.2206  163.7432 N.3     1  UNL1       -0.2711
      8 C         139.7166  140.0764  162.5151 C.3     1  UNL1        0.0933
      9 C         139.5942  139.4427  165.2105 C.3     1  UNL1        0.0578
     10 C         138.4045  138.8347  165.8922 C.3     1  UNL1        0.0187
     11 C         138.1862  139.0568  167.3596 C.3     1  UNL1        0.0331
     12 C         139.1576  139.8870  168.1451 C.3     1  UNL1        0.1139
     13 O         138.1883  139.5234  169.2306 O.3     1  UNL1       -0.3821
     14 C         140.3474  140.4951  167.4633 C.3     1  UNL1        0.0331
     15 C         140.5657  140.2729  165.9961 C.3     1  UNL1        0.0187
     16 H         137.4822  138.9702  168.8615 H       1  UNL1        0.2107
     17 C         139.7924  140.5909  169.3076 C.ar    1  UNL1        0.0507
     18 C         140.2502  142.0192  169.3305 C.ar    1  UNL1        0.0272
     19 C         140.8216  142.3011  170.6884 C.ar    1  UNL1        0.1076
     20 N         140.7169  141.0471  171.5049 N.ar    1  UNL1       -0.2079
     21 S         140.0808  139.9902  170.6515 S.2     1  UNL1        0.0109
     22 C         139.4778  138.8122  157.7531 C.3     1  UNL1        0.1747
     23 N         140.1787  137.5741  157.2781 N.pl3   1  UNL1       -0.3106
     24 H         140.7243  137.0461  157.9048 H       1  UNL1        0.1486
     25 C         140.0483  137.1404  155.8480 C.ar    1  UNL1        0.1320
     26 N         139.0304  137.7889  154.9574 N.ar    1  UNL1       -0.2092
     27 C         138.9001  137.3551  153.5275 C.ar    1  UNL1        0.2000
     28 N         139.7877  136.2730  152.9881 N.ar    1  UNL1       -0.2239
     29 C         140.8057  135.6245  153.8786 C.ar    1  UNL1        0.0857
     30 C         141.6934  134.5423  153.3393 C.ar    1  UNL1        0.0192
     31 C         142.7113  133.8938  154.2298 C.ar    1  UNL1        0.0054
     32 C         142.8417  134.3276  155.6599 C.ar    1  UNL1        0.0716
     33 C         141.9540  135.4097  156.1993 C.ar    1  UNL1        0.0081
     34 C         140.9360  136.0582  155.3086 C.ar    1  UNL1        0.0491
     35 C         143.8596  133.6791  156.5505 C.3     1  UNL1        0.4186
     36 F         144.8777  133.0306  157.4411 F       1  UNL1       -0.1659
     37 F         144.1608  132.6765  155.4762 F       1  UNL1       -0.1659
     38 F         143.5585  134.6817  157.6247 F       1  UNL1       -0.1659
@<TRIPOS>BOND
     1     1     2    2
     2     2    22    1
     3    22    23    1
     4    23    25    1
     5    25    26   ar
     6    26    27   ar
     7    27    28   ar
     8    28    29   ar
     9    29    30   ar
    10    30    31   ar
    11    31    32   ar
    12    32    35    1
    13    35    36    1
    14    35    37    1
    15    35    38    1
    16    32    33   ar
    17    33    34   ar
    18     2     3   am
    19     3     5    1
    20     5     6    1
    21     6     7    1
    22     9     7    1
    23     9    10    1
    24    10    11    1
    25    11    12    1
    26    12    13    1
    27    12    17    1
    28    17    18   ar
    29    18    19   ar
    30    19    20   ar
    31    20    21   ar
    32    12    14    1
    33    14    15    1
    34     7     8    1
    35    34    25   ar
    36     8     5    1
    37    34    29   ar
    38    15     9    1
    39    21    17   ar
    40    23    24    1
    41     3     4    1
    42    13    16    1
@<TRIPOS>MOLECULE
*****
 38 42 0 0 0
SMALL
GASTEIGER

@<TRIPOS>ATOM
      1 O         139.0457  141.7602  159.9688 O.2     1  UNL1       -0.2733
      2 C         139.1167  140.3927  159.3562 C.2     1  UNL1        0.2425
      3 N         139.1623  139.1784  160.2356 N.am    1  UNL1       -0.3018
      4 H         139.2089  138.2809  159.8336 H       1  UNL1        0.1495
      5 C         139.1369  139.3315  161.7276 C.3     1  UNL1        0.1035
      6 C         140.1408  139.1598  162.8287 C.3     1  UNL1        0.0933
      7 N         139.1009  139.5481  163.8375 N.3     1  UNL1       -0.2711
      8 C         138.0969  139.7198  162.7364 C.3     1  UNL1        0.0933
      9 C         139.0754  139.7012  165.3295 C.3     1  UNL1        0.0578
     10 C         138.0806  138.9304  166.1456 C.3     1  UNL1        0.0187
     11 C         138.0551  139.0835  167.6376 C.3     1  UNL1        0.0331
     12 C         139.0245  140.0074  168.3134 C.3     1  UNL1        0.1139
     13 O         138.2760  139.4958  169.5084 O.3     1  UNL1       -0.3821
     14 C         140.0194  140.7782  167.4971 C.3     1  UNL1        0.0331
     15 C         140.0448  140.6251  166.0052 C.3     1  UNL1        0.0187
     16 H         137.5950  138.8685  169.2191 H       1  UNL1        0.2107
     17 C         139.7339  140.7536  169.4041 C.ar    1  UNL1        0.0507
     18 C         140.0427  142.2215  169.4116 C.ar    1  UNL1        0.0272
     19 C         140.7588  142.5381  170.6910 C.ar    1  UNL1        0.1076
     20 N         140.8925  141.2658  171.4744 N.ar    1  UNL1       -0.2079
     21 S         140.2591  140.1630  170.6790 S.2     1  UNL1        0.0109
     22 C         139.1421  140.2397  157.8643 C.3     1  UNL1        0.1747
     23 N         137.8640  140.0172  157.1113 N.pl3   1  UNL1       -0.3106
     24 H         137.1310  139.5072  157.5256 H       1  UNL1        0.1486
     25 C         137.7029  140.5720  155.7269 C.ar    1  UNL1        0.1320
     26 N         138.9130  140.8592  154.8885 N.ar    1  UNL1       -0.2092
     27 C         138.7518  141.4139  153.5042 C.ar    1  UNL1        0.2000
     28 N         137.3805  141.6814  152.9584 N.ar    1  UNL1       -0.2239
     29 C         136.1704  141.3942  153.7968 C.ar    1  UNL1        0.0857
     30 C         134.7990  141.6617  153.2510 C.ar    1  UNL1        0.0192
     31 C         133.5889  141.3745  154.0895 C.ar    1  UNL1        0.0054
     32 C         133.7501  140.8198  155.4738 C.ar    1  UNL1        0.0716
     33 C         135.1214  140.5523  156.0196 C.ar    1  UNL1        0.0081
     34 C         136.3316  140.8395  155.1811 C.ar    1  UNL1        0.0491
     35 C         132.5399  140.5326  156.3123 C.3     1  UNL1        0.4186
     36 F         131.3297  140.2454  157.1508 F       1  UNL1       -0.1659
     37 F         133.2304  139.3374  156.8994 F       1  UNL1       -0.1659
     38 F         131.8495  141.7278  155.7252 F       1  UNL1       -0.1659
@<TRIPOS>BOND
     1     1     2    2
     2     2    22    1
     3    22    23    1
     4    23    25    1
     5    25    26   ar
     6    26    27   ar
     7    27    28   ar
     8    28    29   ar
     9    29    30   ar
    10    30    31   ar
    11    31    32   ar
    12    32    35    1
    13    35    36    1
    14    35    37    1
    15    35    38    1
    16    32    33   ar
    17    33    34   ar
    18     2     3   am
    19     3     5    1
    20     5     6    1
    21     6     7    1
    22     9     7    1
    23     9    10    1
    24    10    11    1
    25    11    12    1
    26    12    13    1
    27    12    17    1
    28    17    18   ar
    29    18    19   ar
    30    19    20   ar
    31    20    21   ar
    32    12    14    1
    33    14    15    1
    34     7     8    1
    35    34    25   ar
    36     8     5    1
    37    34    29   ar
    38    15     9    1
    39    21    17   ar
    40    23    24    1
    41     3     4    1
    42    13    16    1
@<TRIPOS>MOLECULE
*****
 38 42 0 0 0
SMALL
GASTEIGER

@<TRIPOS>ATOM
      1 O         139.2628  141.4643  160.0888 O.2     1  UNL1       -0.2733
      2 C         138.0672  140.6226  159.7536 C.2     1  UNL1        0.2425
      3 N         137.3281  139.9024  160.8422 N.am    1  UNL1       -0.3018
      4 H         136.5435  139.3500  160.6223 H       1  UNL1        0.1495
      5 C         137.7846  140.0239  162.2660 C.3     1  UNL1        0.1035
      6 C         137.6677  141.0731  163.3314 C.3     1  UNL1        0.0933
      7 N         138.4301  140.1956  164.2794 N.3     1  UNL1       -0.2711
      8 C         138.5470  139.1462  163.2139 C.3     1  UNL1        0.0933
      9 C         138.8866  140.3170  165.7030 C.3     1  UNL1        0.0578
     10 C         138.3616  139.3712  166.7422 C.3     1  UNL1        0.0187
     11 C         138.8180  139.4926  168.1659 C.3     1  UNL1        0.0331
     12 C         139.7995  140.5598  168.5504 C.3     1  UNL1        0.1139
     13 O         139.5900  139.9058  169.8840 O.3     1  UNL1       -0.3821
     14 C         140.3245  141.5056  167.5112 C.3     1  UNL1        0.0331
     15 C         139.8680  141.3842  166.0876 C.3     1  UNL1        0.0187
     16 H         138.9598  139.1744  169.7900 H       1  UNL1        0.2107
     17 C         140.7082  141.3998  169.3981 C.ar    1  UNL1        0.0507
     18 C         141.8464  142.2423  168.9033 C.ar    1  UNL1        0.0272
     19 C         142.4799  142.9080  170.0888 C.ar    1  UNL1        0.1076
     20 N         141.7332  142.4770  171.3163 N.ar    1  UNL1       -0.2079
     21 S         140.6383  141.5450  170.8894 S.2     1  UNL1        0.0109
     22 C         137.6108  140.5012  158.3300 C.3     1  UNL1        0.1747
     23 N         138.6164  140.5072  157.2169 N.pl3   1  UNL1       -0.3106
     24 H         139.0526  141.3492  156.9522 H       1  UNL1        0.1486
     25 C         138.9571  139.2304  156.5071 C.ar    1  UNL1        0.1320
     26 N         138.0483  138.7014  155.4375 N.ar    1  UNL1       -0.2092
     27 C         138.3891  137.4246  154.7277 C.ar    1  UNL1        0.2000
     28 N         139.6387  136.6770  155.0876 N.ar    1  UNL1       -0.2239
     29 C         140.5475  137.2061  156.1572 C.ar    1  UNL1        0.0857
     30 C         141.7971  136.4584  156.5171 C.ar    1  UNL1        0.0192
     31 C         142.7060  136.9875  157.5867 C.ar    1  UNL1        0.0054
     32 C         142.3652  138.2643  158.2965 C.ar    1  UNL1        0.0716
     33 C         141.1156  139.0119  157.9366 C.ar    1  UNL1        0.0081
     34 C         140.2067  138.4828  156.8669 C.ar    1  UNL1        0.0491
     35 C         143.2740  138.7933  159.3661 C.3     1  UNL1        0.4186
     36 F         144.1828  139.3224  160.4358 F       1  UNL1       -0.1659
     37 F         143.8554  139.7711  158.3884 F       1  UNL1       -0.1659
     38 F         142.6925  137.8156  160.3438 F       1  UNL1       -0.1659
@<TRIPOS>BOND
     1     1     2    2
     2     2    22    1
     3    22    23    1
     4    23    25    1
     5    25    26   ar
     6    26    27   ar
     7    27    28   ar
     8    28    29   ar
     9    29    30   ar
    10    30    31   ar
    11    31    32   ar
    12    32    35    1
    13    35    36    1
    14    35    37    1
    15    35    38    1
    16    32    33   ar
    17    33    34   ar
    18     2     3   am
    19     3     5    1
    20     5     6    1
    21     6     7    1
    22     9     7    1
    23     9    10    1
    24    10    11    1
    25    11    12    1
    26    12    13    1
    27    12    17    1
    28    17    18   ar
    29    18    19   ar
    30    19    20   ar
    31    20    21   ar
    32    12    14    1
    33    14    15    1
    34     7     8    1
    35    34    25   ar
    36     8     5    1
    37    34    29   ar
    38    15     9    1
    39    21    17   ar
    40    23    24    1
    41     3     4    1
    42    13    16    1
@<TRIPOS>MOLECULE
*****
 38 42 0 0 0
SMALL
GASTEIGER

@<TRIPOS>ATOM
      1 O         142.3281  144.6578  159.8876 O.2     1  UNL1       -0.2733
      2 C         140.9606  145.2438  159.6957 C.2     1  UNL1        0.2425
      3 N         139.9663  145.2109  160.8182 N.am    1  UNL1       -0.3018
      4 H         139.0688  145.5955  160.6923 H       1  UNL1        0.1495
      5 C         140.3393  144.5919  162.1327 C.3     1  UNL1        0.1035
      6 C         140.4636  143.1883  162.6469 C.3     1  UNL1        0.0933
      7 N         140.8669  143.7166  163.9916 N.3     1  UNL1       -0.2711
      8 C         140.7426  145.1202  163.4774 C.3     1  UNL1        0.0933
      9 C         141.2399  143.0977  165.3060 C.3     1  UNL1        0.0578
     10 C         142.6766  142.7924  165.6104 C.3     1  UNL1        0.0187
     11 C         143.0497  142.1734  166.9248 C.3     1  UNL1        0.0331
     12 C         141.9860  141.8598  167.9349 C.3     1  UNL1        0.1139
     13 O         143.1998  141.3888  168.6799 O.3     1  UNL1       -0.3821
     14 C         140.5493  142.1652  167.6306 C.3     1  UNL1        0.0331
     15 C         140.1763  142.7841  166.3161 C.3     1  UNL1        0.0187
     16 H         143.9894  141.5320  168.1351 H       1  UNL1        0.2107
     17 C         141.3439  141.3827  169.2037 C.ar    1  UNL1        0.0507
     18 C         140.3667  140.2512  169.3260 C.ar    1  UNL1        0.0272
     19 C         139.9850  140.1224  170.7709 C.ar    1  UNL1        0.1076
     20 N         140.7265  141.1743  171.5417 N.ar    1  UNL1       -0.2079
     21 S         141.5662  141.9531  170.5731 S.2     1  UNL1        0.0109
     22 C         140.5877  145.8628  158.3813 C.3     1  UNL1        0.1747
     23 N         140.6254  145.0404  157.1274 N.pl3   1  UNL1       -0.3106
     24 H         141.4901  144.7848  156.7322 H       1  UNL1        0.1486
     25 C         139.3456  144.6074  156.4756 C.ar    1  UNL1        0.1320
     26 N         138.7157  145.4638  155.4175 N.ar    1  UNL1       -0.2092
     27 C         137.4359  145.0308  154.7658 C.ar    1  UNL1        0.2000
     28 N         136.7862  143.7414  155.1723 N.ar    1  UNL1       -0.2239
     29 C         137.4161  142.8849  156.2304 C.ar    1  UNL1        0.0857
     30 C         136.7663  141.5955  156.6368 C.ar    1  UNL1        0.0192
     31 C         137.3963  140.7391  157.6949 C.ar    1  UNL1        0.0054
     32 C         138.6761  141.1721  158.3467 C.ar    1  UNL1        0.0716
     33 C         139.3259  142.4615  157.9402 C.ar    1  UNL1        0.0081
     34 C         138.6958  143.3179  156.8821 C.ar    1  UNL1        0.0491
     35 C         139.3061  140.3157  159.4048 C.3     1  UNL1        0.4186
     36 F         139.9360  139.4592  160.4629 F       1  UNL1       -0.1659
     37 F         140.5824  141.0926  159.2737 F       1  UNL1       -0.1659
     38 F         138.0297  139.5387  159.5358 F       1  UNL1       -0.1659
@<TRIPOS>BOND
     1     1     2    2
     2     2    22    1
     3    22    23    1
     4    23    25    1
     5    25    26   ar
     6    26    27   ar
     7    27    28   ar
     8    28    29   ar
     9    29    30   ar
    10    30    31   ar
    11    31    32   ar
    12    32    35    1
    13    35    36    1
    14    35    37    1
    15    35    38    1
    16    32    33   ar
    17    33    34   ar
    18     2     3   am
    19     3     5    1
    20     5     6    1
    21     6     7    1
    22     9     7    1
    23     9    10    1
    24    10    11    1
    25    11    12    1
    26    12    13    1
    27    12    17    1
    28    17    18   ar
    29    18    19   ar
    30    19    20   ar
    31    20    21   ar
    32    12    14    1
    33    14    15    1
    34     7     8    1
    35    34    25   ar
    36     8     5    1
    37    34    29   ar
    38    15     9    1
    39    21    17   ar
    40    23    24    1
    41     3     4    1
    42    13    16    1
@<TRIPOS>MOLECULE
*****
 38 42 0 0 0
SMALL
GASTEIGER

@<TRIPOS>ATOM
      1 O         139.6011  144.8698  160.0051 O.2     1  UNL1       -0.2733
      2 C         140.9407  145.1690  159.4000 C.2     1  UNL1        0.2425
      3 N         142.1921  144.9236  160.1897 N.am    1  UNL1       -0.3018
      4 H         143.0713  145.1200  159.7926 H       1  UNL1        0.1495
      5 C         142.1039  144.3790  161.5847 C.3     1  UNL1        0.1035
      6 C         141.9291  144.9787  162.9483 C.3     1  UNL1        0.0933
      7 N         141.9793  143.6087  163.5573 N.3     1  UNL1       -0.2711
      8 C         142.1542  143.0090  162.1935 C.3     1  UNL1        0.0933
      9 C         141.8912  143.0641  164.9521 C.3     1  UNL1        0.0578
     10 C         143.1402  142.6733  165.6849 C.3     1  UNL1        0.0187
     11 C         143.0521  142.1287  167.0798 C.3     1  UNL1        0.0331
     12 C         141.7149  141.9748  167.7418 C.3     1  UNL1        0.1139
     13 O         142.6073  141.4697  168.8366 O.3     1  UNL1       -0.3821
     14 C         140.4658  142.3656  167.0089 C.3     1  UNL1        0.0331
     15 C         140.5540  142.9103  165.6141 C.3     1  UNL1        0.0187
     16 H         143.5315  141.5104  168.5450 H       1  UNL1        0.2107
     17 C         140.6876  141.6455  168.7840 C.ar    1  UNL1        0.0507
     18 C         139.8905  140.3775  168.8666 C.ar    1  UNL1        0.0272
     19 C         138.9873  140.4748  170.0602 C.ar    1  UNL1        0.1076
     20 N         139.2262  141.8030  170.7153 N.ar    1  UNL1       -0.2079
     21 S         140.2770  142.5264  169.9265 S.2     1  UNL1        0.0109
     22 C         141.0288  145.7136  158.0051 C.3     1  UNL1        0.1747
     23 N         141.1256  144.7757  156.8385 N.pl3   1  UNL1       -0.3106
     24 H         141.4187  145.1109  155.9605 H       1  UNL1        0.1486
     25 C         140.7757  143.3271  157.0098 C.ar    1  UNL1        0.1320
     26 N         139.3377  142.9019  157.0450 N.ar    1  UNL1       -0.2092
     27 C         138.9880  141.4534  157.2162 C.ar    1  UNL1        0.2000
     28 N         140.0762  140.4300  157.3522 N.ar    1  UNL1       -0.2239
     29 C         141.5142  140.8552  157.3170 C.ar    1  UNL1        0.0857
     30 C         142.6024  139.8319  157.4530 C.ar    1  UNL1        0.0192
     31 C         144.0405  140.2571  157.4177 C.ar    1  UNL1        0.0054
     32 C         144.3903  141.7057  157.2465 C.ar    1  UNL1        0.0716
     33 C         143.3021  142.7290  157.1105 C.ar    1  UNL1        0.0081
     34 C         141.8640  142.3037  157.1458 C.ar    1  UNL1        0.0491
     35 C         145.8283  142.1308  157.2113 C.3     1  UNL1        0.4186
     36 F         147.2664  142.5560  157.1760 F       1  UNL1       -0.1659
     37 F         145.6038  142.9902  158.4200 F       1  UNL1       -0.1659
     38 F         146.0528  141.2715  156.0025 F       1  UNL1       -0.1659
@<TRIPOS>BOND
     1     1     2    2
     2     2    22    1
     3    22    23    1
     4    23    25    1
     5    25    26   ar
     6    26    27   ar
     7    27    28   ar
     8    28    29   ar
     9    29    30   ar
    10    30    31   ar
    11    31    32   ar
    12    32    35    1
    13    35    36    1
    14    35    37    1
    15    35    38    1
    16    32    33   ar
    17    33    34   ar
    18     2     3   am
    19     3     5    1
    20     5     6    1
    21     6     7    1
    22     9     7    1
    23     9    10    1
    24    10    11    1
    25    11    12    1
    26    12    13    1
    27    12    17    1
    28    17    18   ar
    29    18    19   ar
    30    19    20   ar
    31    20    21   ar
    32    12    14    1
    33    14    15    1
    34     7     8    1
    35    34    25   ar
    36     8     5    1
    37    34    29   ar
    38    15     9    1
    39    21    17   ar
    40    23    24    1
    41     3     4    1
    42    13    16    1
