@<TRIPOS>MOLECULE
*****
 30 34 0 0 0
SMALL
GASTEIGER

@<TRIPOS>ATOM
      1 C         142.9348  138.3815  161.0948 C.3     1  UNL1        0.0826
      2 C         141.7490  137.9507  161.9063 C.3     1  UNL1        0.0308
      3 C         141.6759  138.2893  163.3657 C.3     1  UNL1        0.0913
      4 N         142.7886  139.0587  164.0138 N.pl3   1  UNL1       -0.3063
      5 C         143.9743  139.4895  163.2024 C.3     1  UNL1        0.0913
      6 C         144.0475  139.1509  161.7429 C.3     1  UNL1        0.0308
      7 C         142.7155  139.3973  165.4733 C.ar    1  UNL1        0.0673
      8 C         143.3291  138.4787  166.4880 C.ar    1  UNL1        0.1133
      9 N         143.2560  138.8174  167.9474 N.ar    1  UNL1       -0.2425
     10 C         142.5692  140.0746  168.3921 C.ar    1  UNL1        0.0814
     11 C         142.4961  140.4132  169.8516 C.ar    1  UNL1        0.0200
     12 C         141.8093  141.6704  170.2963 C.ar    1  UNL1        0.0129
     13 C         141.1956  142.5890  169.2815 C.ar    1  UNL1        0.0578
     14 CL        140.5088  143.8462  169.7262 Cl      1  UNL1       -0.0822
     15 C         141.2687  142.2503  167.8221 C.ar    1  UNL1        0.0129
     16 C         141.9555  140.9931  167.3774 C.ar    1  UNL1        0.0198
     17 C         142.0287  140.6545  165.9180 C.ar    1  UNL1        0.0176
     18 C         142.9067  136.8191  157.5419 C.ar    1  UNL1        0.2041
     19 N         143.3339  138.2244  157.2372 N.ar    1  UNL1       -0.0560
     20 O         143.3964  138.9807  158.5311 O.2     1  UNL1       -0.3370
     21 C         143.0079  138.0428  159.6354 C.ar    1  UNL1        0.2362
     22 N         142.7053  136.7069  159.0240 N.ar    1  UNL1       -0.1907
     23 F         142.1390  132.4194  153.5353 F       1  UNL1       -0.2041
     24 C         142.3309  133.5194  154.5369 C.ar    1  UNL1        0.1410
     25 C         143.5638  133.5494  155.3907 C.ar    1  UNL1        0.0298
     26 C         143.7558  134.6493  156.3924 C.ar    1  UNL1        0.0063
     27 C         142.7148  135.7192  156.5402 C.ar    1  UNL1        0.0498
     28 C         141.4819  135.6891  155.6864 C.ar    1  UNL1        0.0629
     29 CL        140.4409  136.7590  155.8343 Cl      1  UNL1       -0.0821
     30 C         141.2899  134.5892  154.6848 C.ar    1  UNL1        0.0411
@<TRIPOS>BOND
     1    23    24    1
     2    24    25   ar
     3    25    26   ar
     4    26    27   ar
     5    27    18    1
     6    18    19   ar
     7    19    20   ar
     8    20    21   ar
     9    21     1    1
    10     1     2    1
    11     2     3    1
    12     3     4    1
    13     4     7    1
    14     7     8   ar
    15     8     9   ar
    16     9    10   ar
    17    10    11   ar
    18    11    12   ar
    19    12    13   ar
    20    13    14    1
    21    13    15   ar
    22    15    16   ar
    23    16    17   ar
    24     4     5    1
    25     5     6    1
    26    21    22   ar
    27    27    28   ar
    28    28    29    1
    29    28    30   ar
    30    30    24   ar
    31    22    18   ar
    32     6     1    1
    33    17     7   ar
    34    16    10   ar
@<TRIPOS>MOLECULE
*****
 30 34 0 0 0
SMALL
GASTEIGER

@<TRIPOS>ATOM
      1 C         142.7622  139.1292  160.8769 C.3     1  UNL1        0.0826
      2 C         141.6470  140.0811  161.1936 C.3     1  UNL1        0.0308
      3 C         141.4502  140.5646  162.5998 C.3     1  UNL1        0.0913
      4 N         142.3686  140.0962  163.6894 N.pl3   1  UNL1       -0.3063
      5 C         143.4837  139.1443  163.3728 C.3     1  UNL1        0.0913
      6 C         143.6806  138.6608  161.9666 C.3     1  UNL1        0.0308
      7 C         142.1717  140.5798  165.0957 C.ar    1  UNL1        0.0673
      8 C         143.1560  141.5333  165.7056 C.ar    1  UNL1        0.1133
      9 N         142.9591  142.0168  167.1118 N.ar    1  UNL1       -0.2425
     10 C         141.7779  141.5468  167.9081 C.ar    1  UNL1        0.0814
     11 C         141.5811  142.0304  169.3143 C.ar    1  UNL1        0.0200
     12 C         140.4000  141.5604  170.1106 C.ar    1  UNL1        0.0129
     13 C         139.4157  140.6068  169.5006 C.ar    1  UNL1        0.0578
     14 CL        138.2345  140.1368  170.2968 Cl      1  UNL1       -0.0822
     15 C         139.6126  140.1233  168.0944 C.ar    1  UNL1        0.0129
     16 C         140.7937  140.5933  167.2981 C.ar    1  UNL1        0.0198
     17 C         140.9906  140.1098  165.8919 C.ar    1  UNL1        0.0176
     18 C         142.9216  137.2563  157.4810 C.ar    1  UNL1        0.2041
     19 N         143.6021  138.5469  157.1325 N.ar    1  UNL1       -0.0560
     20 O         143.6252  139.4055  158.3623 O.2     1  UNL1       -0.3370
     21 C         142.9590  138.6457  159.4707 C.ar    1  UNL1        0.2362
     22 N         142.5242  137.3174  158.9261 N.ar    1  UNL1       -0.1907
     23 F         141.9587  132.6575  153.7497 F       1  UNL1       -0.2041
     24 C         142.1994  133.8072  154.6826 C.ar    1  UNL1        0.1410
     25 C         143.5017  133.9155  155.4189 C.ar    1  UNL1        0.0298
     26 C         143.7425  135.0652  156.3517 C.ar    1  UNL1        0.0063
     27 C         142.6809  136.1066  156.5482 C.ar    1  UNL1        0.0498
     28 C         141.3786  135.9983  155.8118 C.ar    1  UNL1        0.0629
     29 CL        140.3170  137.0397  156.0083 Cl      1  UNL1       -0.0821
     30 C         141.1378  134.8486  154.8790 C.ar    1  UNL1        0.0411
@<TRIPOS>BOND
     1    23    24    1
     2    24    25   ar
     3    25    26   ar
     4    26    27   ar
     5    27    18    1
     6    18    19   ar
     7    19    20   ar
     8    20    21   ar
     9    21     1    1
    10     1     2    1
    11     2     3    1
    12     3     4    1
    13     4     7    1
    14     7     8   ar
    15     8     9   ar
    16     9    10   ar
    17    10    11   ar
    18    11    12   ar
    19    12    13   ar
    20    13    14    1
    21    13    15   ar
    22    15    16   ar
    23    16    17   ar
    24     4     5    1
    25     5     6    1
    26    21    22   ar
    27    27    28   ar
    28    28    29    1
    29    28    30   ar
    30    30    24   ar
    31    22    18   ar
    32     6     1    1
    33    17     7   ar
    34    16    10   ar
@<TRIPOS>MOLECULE
*****
 30 34 0 0 0
SMALL
GASTEIGER

@<TRIPOS>ATOM
      1 C         142.1624  138.1074  157.9364 C.3     1  UNL1        0.0826
      2 C         142.8472  138.6926  159.1358 C.3     1  UNL1        0.0308
      3 C         142.1222  139.6729  160.0095 C.3     1  UNL1        0.0913
      4 N         140.7124  140.0681  159.6837 N.pl3   1  UNL1       -0.3063
      5 C         140.0275  139.4830  158.4843 C.3     1  UNL1        0.0913
      6 C         140.7525  138.5026  157.6106 C.3     1  UNL1        0.0308
      7 C         139.9874  141.0485  160.5574 C.ar    1  UNL1        0.0673
      8 C         138.8478  141.8494  160.0008 C.ar    1  UNL1        0.1133
      9 N         138.1229  142.8297  160.8744 N.ar    1  UNL1       -0.2425
     10 C         138.5375  143.0092  162.3048 C.ar    1  UNL1        0.0814
     11 C         137.8125  143.9896  163.1785 C.ar    1  UNL1        0.0200
     12 C         138.2272  144.1691  164.6088 C.ar    1  UNL1        0.0129
     13 C         139.3668  143.3681  165.1654 C.ar    1  UNL1        0.0578
     14 CL        139.7815  143.5476  166.5958 Cl      1  UNL1       -0.0822
     15 C         140.0918  142.3878  164.2918 C.ar    1  UNL1        0.0129
     16 C         139.6771  142.2083  162.8614 C.ar    1  UNL1        0.0198
     17 C         140.4020  141.2280  161.9877 C.ar    1  UNL1        0.0176
     18 C         143.5907  135.0602  156.0026 C.ar    1  UNL1        0.2041
     19 N         144.4154  136.1768  155.4340 N.ar    1  UNL1       -0.0560
     20 O         143.9807  137.4542  156.0892 O.2     1  UNL1       -0.3370
     21 C         142.8874  137.1271  157.0627 C.ar    1  UNL1        0.2362
     22 N         142.6464  135.6475  157.0092 N.ar    1  UNL1       -0.1907
     23 F         143.9981  129.2626  154.5123 F       1  UNL1       -0.2041
     24 C         143.8963  130.7120  154.8848 C.ar    1  UNL1        0.1410
     25 C         144.6989  131.2495  156.0324 C.ar    1  UNL1        0.0298
     26 C         144.5970  132.6989  156.4050 C.ar    1  UNL1        0.0063
     27 C         143.6926  133.6108  155.6300 C.ar    1  UNL1        0.0498
     28 C         142.8900  133.0732  154.4825 C.ar    1  UNL1        0.0629
     29 CL        141.9855  133.9851  153.7075 Cl      1  UNL1       -0.0821
     30 C         142.9918  131.6238  154.1099 C.ar    1  UNL1        0.0411
@<TRIPOS>BOND
     1    23    24    1
     2    24    25   ar
     3    25    26   ar
     4    26    27   ar
     5    27    18    1
     6    18    19   ar
     7    19    20   ar
     8    20    21   ar
     9    21     1    1
    10     1     2    1
    11     2     3    1
    12     3     4    1
    13     4     7    1
    14     7     8   ar
    15     8     9   ar
    16     9    10   ar
    17    10    11   ar
    18    11    12   ar
    19    12    13   ar
    20    13    14    1
    21    13    15   ar
    22    15    16   ar
    23    16    17   ar
    24     4     5    1
    25     5     6    1
    26    21    22   ar
    27    27    28   ar
    28    28    29    1
    29    28    30   ar
    30    30    24   ar
    31    22    18   ar
    32     6     1    1
    33    17     7   ar
    34    16    10   ar
@<TRIPOS>MOLECULE
*****
 30 34 0 0 0
SMALL
GASTEIGER

@<TRIPOS>ATOM
      1 C         140.2626  140.1720  158.1541 C.3     1  UNL1        0.0826
      2 C         141.6097  139.5384  158.3385 C.3     1  UNL1        0.0308
      3 C         141.9576  138.2849  157.5918 C.3     1  UNL1        0.0913
      4 N         140.9583  137.6648  156.6606 N.pl3   1  UNL1       -0.3063
      5 C         139.6112  138.2983  156.4762 C.3     1  UNL1        0.0913
      6 C         139.2633  139.5519  157.2229 C.3     1  UNL1        0.0308
      7 C         141.3062  136.4112  155.9139 C.ar    1  UNL1        0.0673
      8 C         140.6263  136.0996  154.6137 C.ar    1  UNL1        0.1133
      9 N         140.9742  134.8460  153.8671 N.ar    1  UNL1       -0.2425
     10 C         142.0020  133.9041  154.4206 C.ar    1  UNL1        0.0814
     11 C         142.3499  132.6505  153.6739 C.ar    1  UNL1        0.0200
     12 C         143.3777  131.7086  154.2274 C.ar    1  UNL1        0.0129
     13 C         144.0576  132.0203  155.5277 C.ar    1  UNL1        0.0578
     14 CL        145.0855  131.0784  156.0812 Cl      1  UNL1       -0.0822
     15 C         143.7097  133.2739  156.2743 C.ar    1  UNL1        0.0129
     16 C         142.6819  134.2158  155.7208 C.ar    1  UNL1        0.0198
     17 C         142.3340  135.4693  156.4674 C.ar    1  UNL1        0.0176
     18 C         139.4318  142.9824  160.6990 C.ar    1  UNL1        0.2041
     19 N         139.3272  143.7266  159.4008 N.ar    1  UNL1       -0.0560
     20 O         139.6257  142.7644  158.2895 O.2     1  UNL1       -0.3370
     21 C         139.9148  141.4255  158.9008 C.ar    1  UNL1        0.2362
     22 N         139.7949  141.5602  160.3899 N.ar    1  UNL1       -0.1907
     23 F         138.5520  145.2892  166.1674 F       1  UNL1       -0.2041
     24 C         138.7720  144.7125  164.8003 C.ar    1  UNL1        0.1410
     25 C         137.6561  143.9945  164.1008 C.ar    1  UNL1        0.0298
     26 C         137.8760  143.4178  162.7337 C.ar    1  UNL1        0.0063
     27 C         139.2118  143.5591  162.0661 C.ar    1  UNL1        0.0498
     28 C         140.3277  144.2771  162.7656 C.ar    1  UNL1        0.0629
     29 CL        141.6635  144.4183  162.0980 Cl      1  UNL1       -0.0821
     30 C         140.1078  144.8538  164.1327 C.ar    1  UNL1        0.0411
@<TRIPOS>BOND
     1    23    24    1
     2    24    25   ar
     3    25    26   ar
     4    26    27   ar
     5    27    18    1
     6    18    19   ar
     7    19    20   ar
     8    20    21   ar
     9    21     1    1
    10     1     2    1
    11     2     3    1
    12     3     4    1
    13     4     7    1
    14     7     8   ar
    15     8     9   ar
    16     9    10   ar
    17    10    11   ar
    18    11    12   ar
    19    12    13   ar
    20    13    14    1
    21    13    15   ar
    22    15    16   ar
    23    16    17   ar
    24     4     5    1
    25     5     6    1
    26    21    22   ar
    27    27    28   ar
    28    28    29    1
    29    28    30   ar
    30    30    24   ar
    31    22    18   ar
    32     6     1    1
    33    17     7   ar
    34    16    10   ar
@<TRIPOS>MOLECULE
*****
 30 34 0 0 0
SMALL
GASTEIGER

@<TRIPOS>ATOM
      1 C         140.4841  143.9244  160.2467 C.3     1  UNL1        0.0826
      2 C         141.7645  144.4172  160.8533 C.3     1  UNL1        0.0308
      3 C         142.1478  143.9959  162.2409 C.3     1  UNL1        0.0913
      4 N         141.2509  143.0819  163.0220 N.pl3   1  UNL1       -0.3063
      5 C         139.9706  142.5891  162.4154 C.3     1  UNL1        0.0913
      6 C         139.5872  143.0103  161.0277 C.3     1  UNL1        0.0308
      7 C         141.6343  142.6606  164.4097 C.ar    1  UNL1        0.0673
      8 C         142.8860  141.8648  164.6330 C.ar    1  UNL1        0.1133
      9 N         143.2694  141.4436  166.0206 N.ar    1  UNL1       -0.2425
     10 C         142.4011  141.8182  167.1849 C.ar    1  UNL1        0.0814
     11 C         142.7845  141.3969  168.5726 C.ar    1  UNL1        0.0200
     12 C         141.9162  141.7715  169.7370 C.ar    1  UNL1        0.0129
     13 C         140.6645  142.5674  169.5136 C.ar    1  UNL1        0.0578
     14 CL        139.7962  142.9420  170.6780 Cl      1  UNL1       -0.0822
     15 C         140.2811  142.9886  168.1260 C.ar    1  UNL1        0.0129
     16 C         141.1494  142.6140  166.9617 C.ar    1  UNL1        0.0198
     17 C         140.7660  143.0352  165.5740 C.ar    1  UNL1        0.0176
     18 C         139.7422  145.6918  156.8716 C.ar    1  UNL1        0.2041
     19 N         139.2794  144.2960  156.5758 N.ar    1  UNL1       -0.0560
     20 O         139.5010  143.4640  157.8041 O.2     1  UNL1       -0.3370
     21 C         140.1007  144.3456  158.8591 C.ar    1  UNL1        0.2362
     22 N         140.2498  145.7225  158.2828 N.ar    1  UNL1       -0.1907
     23 F         139.5896  150.3367  153.0768 F       1  UNL1       -0.2041
     24 C         139.6278  149.1755  154.0255 C.ar    1  UNL1        0.1410
     25 C         138.8275  149.2164  155.2935 C.ar    1  UNL1        0.0298
     26 C         138.8657  148.0552  156.2423 C.ar    1  UNL1        0.0063
     27 C         139.7040  146.8531  155.9229 C.ar    1  UNL1        0.0498
     28 C         140.5043  146.8121  154.6549 C.ar    1  UNL1        0.0629
     29 CL        141.3426  145.6099  154.3355 Cl      1  UNL1       -0.0821
     30 C         140.4661  147.9733  153.7062 C.ar    1  UNL1        0.0411
@<TRIPOS>BOND
     1    23    24    1
     2    24    25   ar
     3    25    26   ar
     4    26    27   ar
     5    27    18    1
     6    18    19   ar
     7    19    20   ar
     8    20    21   ar
     9    21     1    1
    10     1     2    1
    11     2     3    1
    12     3     4    1
    13     4     7    1
    14     7     8   ar
    15     8     9   ar
    16     9    10   ar
    17    10    11   ar
    18    11    12   ar
    19    12    13   ar
    20    13    14    1
    21    13    15   ar
    22    15    16   ar
    23    16    17   ar
    24     4     5    1
    25     5     6    1
    26    21    22   ar
    27    27    28   ar
    28    28    29    1
    29    28    30   ar
    30    30    24   ar
    31    22    18   ar
    32     6     1    1
    33    17     7   ar
    34    16    10   ar
@<TRIPOS>MOLECULE
*****
 30 34 0 0 0
SMALL
GASTEIGER

@<TRIPOS>ATOM
      1 C         143.2477  140.2706  160.1938 C.3     1  UNL1        0.0826
      2 C         143.7209  139.2557  161.1920 C.3     1  UNL1        0.0308
      3 C         143.1264  139.2242  162.5688 C.3     1  UNL1        0.0913
      4 N         142.0588  140.2075  162.9475 N.pl3   1  UNL1       -0.3063
      5 C         141.5856  141.2223  161.9494 C.3     1  UNL1        0.0913
      6 C         142.1801  141.2538  160.5725 C.3     1  UNL1        0.0308
      7 C         141.4643  140.1759  164.3244 C.ar    1  UNL1        0.0673
      8 C         139.9792  140.2878  164.5029 C.ar    1  UNL1        0.1133
      9 N         139.3849  140.2563  165.8797 N.ar    1  UNL1       -0.2425
     10 C         140.2756  140.1128  167.0780 C.ar    1  UNL1        0.0814
     11 C         139.6812  140.0812  168.4549 C.ar    1  UNL1        0.0200
     12 C         140.5719  139.9377  169.6532 C.ar    1  UNL1        0.0129
     13 C         142.0571  139.8258  169.4747 C.ar    1  UNL1        0.0578
     14 CL        142.9478  139.6823  170.6730 Cl      1  UNL1       -0.0822
     15 C         142.6514  139.8574  168.0979 C.ar    1  UNL1        0.0129
     16 C         141.7607  140.0009  166.8995 C.ar    1  UNL1        0.0198
     17 C         142.3551  140.0324  165.5227 C.ar    1  UNL1        0.0176
     18 C         145.0159  141.0428  156.8260 C.ar    1  UNL1        0.2041
     19 N         144.4979  139.6584  156.5707 N.ar    1  UNL1       -0.0560
     20 O         143.7725  139.2007  157.8012 O.2     1  UNL1       -0.3370
     21 C         143.8421  140.3021  158.8171 C.ar    1  UNL1        0.2362
     22 N         144.6106  141.4406  158.2143 N.ar    1  UNL1       -0.1907
     23 F         148.1574  144.3996  152.9709 F       1  UNL1       -0.2041
     24 C         147.3721  143.5604  153.9347 C.ar    1  UNL1        0.1410
     25 C         148.0843  142.6386  154.8796 C.ar    1  UNL1        0.0298
     26 C         147.2989  141.7994  155.8434 C.ar    1  UNL1        0.0063
     27 C         145.8013  141.8820  155.8622 C.ar    1  UNL1        0.0498
     28 C         145.0891  142.8038  154.9173 C.ar    1  UNL1        0.0629
     29 CL        143.5914  142.8865  154.9361 Cl      1  UNL1       -0.0821
     30 C         145.8744  143.6430  153.9535 C.ar    1  UNL1        0.0411
@<TRIPOS>BOND
     1    23    24    1
     2    24    25   ar
     3    25    26   ar
     4    26    27   ar
     5    27    18    1
     6    18    19   ar
     7    19    20   ar
     8    20    21   ar
     9    21     1    1
    10     1     2    1
    11     2     3    1
    12     3     4    1
    13     4     7    1
    14     7     8   ar
    15     8     9   ar
    16     9    10   ar
    17    10    11   ar
    18    11    12   ar
    19    12    13   ar
    20    13    14    1
    21    13    15   ar
    22    15    16   ar
    23    16    17   ar
    24     4     5    1
    25     5     6    1
    26    21    22   ar
    27    27    28   ar
    28    28    29    1
    29    28    30   ar
    30    30    24   ar
    31    22    18   ar
    32     6     1    1
    33    17     7   ar
    34    16    10   ar
@<TRIPOS>MOLECULE
*****
 30 34 0 0 0
SMALL
GASTEIGER

@<TRIPOS>ATOM
      1 C         143.7169  140.0587  160.7585 C.3     1  UNL1        0.0826
      2 C         143.4341  141.2764  161.5875 C.3     1  UNL1        0.0308
      3 C         143.1991  141.1412  163.0628 C.3     1  UNL1        0.0913
      4 N         143.2469  139.7884  163.7091 N.pl3   1  UNL1       -0.3063
      5 C         143.5296  138.5708  162.8801 C.3     1  UNL1        0.0913
      6 C         143.7647  138.7059  161.4047 C.3     1  UNL1        0.0308
      7 C         143.0118  139.6534  165.1844 C.ar    1  UNL1        0.0673
      8 C         143.7227  138.5860  165.9625 C.ar    1  UNL1        0.1133
      9 N         143.4876  138.4510  167.4378 N.ar    1  UNL1       -0.2425
     10 C         142.5417  139.3833  168.1350 C.ar    1  UNL1        0.0814
     11 C         142.3067  139.2482  169.6103 C.ar    1  UNL1        0.0200
     12 C         141.3607  140.1804  170.3075 C.ar    1  UNL1        0.0129
     13 C         140.6498  141.2478  169.5293 C.ar    1  UNL1        0.0578
     14 CL        139.7039  142.1801  170.2265 Cl      1  UNL1       -0.0822
     15 C         140.8849  141.3828  168.0541 C.ar    1  UNL1        0.0129
     16 C         141.8308  140.4506  167.3569 C.ar    1  UNL1        0.0198
     17 C         142.0659  140.5856  165.8816 C.ar    1  UNL1        0.0176
     18 C         144.5006  141.1218  157.1087 C.ar    1  UNL1        0.2041
     19 N         144.1266  139.6818  156.9172 N.ar    1  UNL1       -0.0560
     20 O         143.7875  139.1083  158.2611 O.2     1  UNL1       -0.3370
     21 C         143.9520  140.1938  159.2832 C.ar    1  UNL1        0.2362
     22 N         144.3927  141.4382  158.5709 N.ar    1  UNL1       -0.1907
     23 F         146.1406  144.9445  152.7847 F       1  UNL1       -0.2041
     24 C         145.7306  143.9888  153.8657 C.ar    1  UNL1        0.1410
     25 C         146.7722  143.2092  154.6122 C.ar    1  UNL1        0.0298
     26 C         146.3622  142.2535  155.6932 C.ar    1  UNL1        0.0063
     27 C         144.9106  142.0774  156.0277 C.ar    1  UNL1        0.0498
     28 C         143.8690  142.8570  155.2812 C.ar    1  UNL1        0.0629
     29 CL        142.4174  142.6809  155.6156 Cl      1  UNL1       -0.0821
     30 C         144.2790  143.8127  154.2002 C.ar    1  UNL1        0.0411
@<TRIPOS>BOND
     1    23    24    1
     2    24    25   ar
     3    25    26   ar
     4    26    27   ar
     5    27    18    1
     6    18    19   ar
     7    19    20   ar
     8    20    21   ar
     9    21     1    1
    10     1     2    1
    11     2     3    1
    12     3     4    1
    13     4     7    1
    14     7     8   ar
    15     8     9   ar
    16     9    10   ar
    17    10    11   ar
    18    11    12   ar
    19    12    13   ar
    20    13    14    1
    21    13    15   ar
    22    15    16   ar
    23    16    17   ar
    24     4     5    1
    25     5     6    1
    26    21    22   ar
    27    27    28   ar
    28    28    29    1
    29    28    30   ar
    30    30    24   ar
    31    22    18   ar
    32     6     1    1
    33    17     7   ar
    34    16    10   ar
@<TRIPOS>MOLECULE
*****
 30 34 0 0 0
SMALL
GASTEIGER

@<TRIPOS>ATOM
      1 C         142.6903  139.4372  162.0374 C.3     1  UNL1        0.0826
      2 C         142.1576  140.3421  160.9662 C.3     1  UNL1        0.0308
      3 C         142.0437  139.8475  159.5547 C.3     1  UNL1        0.0913
      4 N         142.4624  138.4479  159.2144 N.pl3   1  UNL1       -0.3063
      5 C         142.9951  137.5430  160.2855 C.3     1  UNL1        0.0913
      6 C         143.1090  138.0376  161.6971 C.3     1  UNL1        0.0308
      7 C         142.3485  137.9532  157.8028 C.ar    1  UNL1        0.0673
      8 C         142.0332  138.9137  156.6947 C.ar    1  UNL1        0.1133
      9 N         141.9193  138.4191  155.2832 N.ar    1  UNL1       -0.2425
     10 C         142.1206  136.9639  154.9799 C.ar    1  UNL1        0.0814
     11 C         142.0066  136.4693  153.5683 C.ar    1  UNL1        0.0200
     12 C         142.2079  135.0141  153.2650 C.ar    1  UNL1        0.0129
     13 C         142.5232  134.0536  154.3733 C.ar    1  UNL1        0.0578
     14 CL        142.7245  132.5984  154.0700 Cl      1  UNL1       -0.0822
     15 C         142.6371  134.5483  155.7847 C.ar    1  UNL1        0.0129
     16 C         142.4358  136.0034  156.0880 C.ar    1  UNL1        0.0198
     17 C         142.5498  136.4981  157.4995 C.ar    1  UNL1        0.0176
     18 C         142.4057  140.2536  165.8213 C.ar    1  UNL1        0.2041
     19 N         143.5533  141.1326  165.4206 N.ar    1  UNL1       -0.0560
     20 O         143.7996  140.9337  163.9543 O.2     1  UNL1       -0.3370
     21 C         142.8042  139.9319  163.4489 C.ar    1  UNL1        0.2362
     22 N         141.9428  139.5115  164.6027 N.ar    1  UNL1       -0.1907
     23 F         140.0764  139.7879  171.3310 F       1  UNL1       -0.2041
     24 C         140.6588  139.9043  169.9536 C.ar    1  UNL1        0.1410
     25 C         142.0449  139.4005  169.6803 C.ar    1  UNL1        0.0298
     26 C         142.6273  139.5169  168.3029 C.ar    1  UNL1        0.0063
     27 C         141.8234  140.1372  167.1987 C.ar    1  UNL1        0.0498
     28 C         140.4372  140.6410  167.4720 C.ar    1  UNL1        0.0629
     29 CL        139.6334  141.2612  166.3678 Cl      1  UNL1       -0.0821
     30 C         139.8549  140.5245  168.8494 C.ar    1  UNL1        0.0411
@<TRIPOS>BOND
     1    23    24    1
     2    24    25   ar
     3    25    26   ar
     4    26    27   ar
     5    27    18    1
     6    18    19   ar
     7    19    20   ar
     8    20    21   ar
     9    21     1    1
    10     1     2    1
    11     2     3    1
    12     3     4    1
    13     4     7    1
    14     7     8   ar
    15     8     9   ar
    16     9    10   ar
    17    10    11   ar
    18    11    12   ar
    19    12    13   ar
    20    13    14    1
    21    13    15   ar
    22    15    16   ar
    23    16    17   ar
    24     4     5    1
    25     5     6    1
    26    21    22   ar
    27    27    28   ar
    28    28    29    1
    29    28    30   ar
    30    30    24   ar
    31    22    18   ar
    32     6     1    1
    33    17     7   ar
    34    16    10   ar
@<TRIPOS>MOLECULE
*****
 30 34 0 0 0
SMALL
GASTEIGER

@<TRIPOS>ATOM
      1 C         142.9721  137.9349  157.5483 C.3     1  UNL1        0.0826
      2 C         142.7718  137.7280  159.0205 C.3     1  UNL1        0.0308
      3 C         142.8115  138.9006  159.9549 C.3     1  UNL1        0.0913
      4 N         143.0514  140.2803  159.4173 N.pl3   1  UNL1       -0.3063
      5 C         143.2517  140.4873  157.9453 C.3     1  UNL1        0.0913
      6 C         143.2121  139.3146  157.0107 C.3     1  UNL1        0.0308
      7 C         143.0910  141.4530  160.3519 C.ar    1  UNL1        0.0673
      8 C         144.3542  142.2470  160.5057 C.ar    1  UNL1        0.1133
      9 N         144.3938  143.4197  161.4402 N.ar    1  UNL1       -0.2425
     10 C         143.1702  143.7982  162.2209 C.ar    1  UNL1        0.0814
     11 C         143.2098  144.9709  163.1554 C.ar    1  UNL1        0.0200
     12 C         141.9861  145.3495  163.9361 C.ar    1  UNL1        0.0129
     13 C         140.7229  144.5553  163.7822 C.ar    1  UNL1        0.0578
     14 CL        139.4993  144.9339  164.5629 Cl      1  UNL1       -0.0822
     15 C         140.6833  143.3827  162.8477 C.ar    1  UNL1        0.0129
     16 C         141.9070  143.0041  162.0670 C.ar    1  UNL1        0.0198
     17 C         141.8674  141.8315  161.1325 C.ar    1  UNL1        0.0176
     18 C         142.6761  134.5105  155.7454 C.ar    1  UNL1        0.2041
     19 N         143.0669  135.4050  154.6064 N.ar    1  UNL1       -0.0560
     20 O         143.2254  136.7966  155.1432 O.2     1  UNL1       -0.3370
     21 C         142.9325  136.7623  156.6139 C.ar    1  UNL1        0.2362
     22 N         142.5931  135.3494  156.9860 N.ar    1  UNL1       -0.1907
     23 F         141.6291  128.6128  155.3992 F       1  UNL1       -0.2041
     24 C         141.8908  130.0872  155.4857 C.ar    1  UNL1        0.1410
     25 C         140.9462  131.0559  154.8382 C.ar    1  UNL1        0.0298
     26 C         141.2079  132.5303  154.9248 C.ar    1  UNL1        0.0063
     27 C         142.4144  133.0360  155.6588 C.ar    1  UNL1        0.0498
     28 C         143.3590  132.0674  156.3063 C.ar    1  UNL1        0.0629
     29 CL        144.5654  132.5731  157.0404 Cl      1  UNL1       -0.0821
     30 C         143.0973  130.5929  156.2198 C.ar    1  UNL1        0.0411
@<TRIPOS>BOND
     1    23    24    1
     2    24    25   ar
     3    25    26   ar
     4    26    27   ar
     5    27    18    1
     6    18    19   ar
     7    19    20   ar
     8    20    21   ar
     9    21     1    1
    10     1     2    1
    11     2     3    1
    12     3     4    1
    13     4     7    1
    14     7     8   ar
    15     8     9   ar
    16     9    10   ar
    17    10    11   ar
    18    11    12   ar
    19    12    13   ar
    20    13    14    1
    21    13    15   ar
    22    15    16   ar
    23    16    17   ar
    24     4     5    1
    25     5     6    1
    26    21    22   ar
    27    27    28   ar
    28    28    29    1
    29    28    30   ar
    30    30    24   ar
    31    22    18   ar
    32     6     1    1
    33    17     7   ar
    34    16    10   ar
