@<TRIPOS>MOLECULE
*****
 25 28 0 0 0
SMALL
GASTEIGER

@<TRIPOS>ATOM
      1 C         139.8875  142.2860  165.7892 C.2     1  UNL1        0.3256
      2 N         140.2879  142.7989  167.1407 N.2     1  UNL1       -0.0388
      3 C         140.4332  142.0373  168.4248 C.ar    1  UNL1        0.2064
      4 C         140.8552  142.9351  169.5498 C.ar    1  UNL1        0.0479
      5 C         141.0579  142.3703  170.9245 C.ar    1  UNL1        0.0039
      6 C         140.8386  140.9076  171.1742 C.ar    1  UNL1        0.0015
      7 C         140.4166  140.0097  170.0492 C.ar    1  UNL1        0.0184
      8 C         140.2139  140.5745  168.6745 C.ar    1  UNL1        0.0923
      9 N         139.7952  139.5122  167.7017 N.pl3   1  UNL1       -0.3045
     10 C         139.4923  139.6502  166.2391 C.ar    1  UNL1        0.0857
     11 S         139.0801  138.5005  165.3685 S.2     1  UNL1       -0.0739
     12 C         138.8664  139.0243  163.9792 C.ar    1  UNL1        0.0380
     13 C         139.1466  140.4979  163.9913 C.ar    1  UNL1        0.0138
     14 C         139.5334  140.8847  165.3880 C.ar    1  UNL1        0.1021
     15 H         139.7076  138.6044  168.0723 H       1  UNL1        0.1528
     16 C         139.6737  146.3809  161.4091 C.3     1  UNL1        0.0898
     17 N         139.7271  145.3572  162.5041 N.3     1  UNL1       -0.2645
     18 C         141.0519  144.8599  163.0019 C.3     1  UNL1        0.1237
     19 C         141.1054  143.8361  164.0969 C.3     1  UNL1        0.2197
     20 N         139.8340  143.3097  164.6942 N.pl3   1  UNL1       -0.1877
     21 C         138.5093  143.8070  164.1964 C.3     1  UNL1        0.2197
     22 C         138.4558  144.8308  163.1014 C.3     1  UNL1        0.1237
     23 C         138.4463  138.2163  162.7873 C.3     1  UNL1        0.1701
     24 O         139.4570  137.3930  162.0452 O.3     1  UNL1       -0.3768
     25 H         140.1049  137.9792  161.6238 H       1  UNL1        0.2109
@<TRIPOS>BOND
     1    16    17    1
     2    17    18    1
     3    18    19    1
     4    19    20    1
     5    20     1    1
     6     1     2    2
     7     2     3    1
     8     3     4   ar
     9     4     5   ar
    10     5     6   ar
    11     6     7   ar
    12     7     8   ar
    13     8     9    1
    14     9    10    1
    15    10    11   ar
    16    11    12   ar
    17    12    23    1
    18    23    24    1
    19    12    13   ar
    20    13    14   ar
    21    20    21    1
    22    21    22    1
    23    22    17    1
    24    14     1    1
    25     8     3   ar
    26    14    10   ar
    27     9    15    1
    28    24    25    1
@<TRIPOS>MOLECULE
*****
 25 28 0 0 0
SMALL
GASTEIGER

@<TRIPOS>ATOM
      1 C         140.6624  142.3194  165.7596 C.2     1  UNL1        0.3256
      2 N         140.4663  142.7964  167.1681 N.2     1  UNL1       -0.0388
      3 C         140.6476  142.0345  168.4475 C.ar    1  UNL1        0.2064
      4 C         140.3457  142.8898  169.6422 C.ar    1  UNL1        0.0479
      5 C         140.4661  142.3179  171.0236 C.ar    1  UNL1        0.0039
      6 C         140.8884  140.8907  171.2103 C.ar    1  UNL1        0.0015
      7 C         141.1903  140.0354  170.0156 C.ar    1  UNL1        0.0184
      8 C         141.0699  140.6073  168.6342 C.ar    1  UNL1        0.0923
      9 N         141.4151  139.5896  167.5877 N.pl3   1  UNL1       -0.3045
     10 C         141.4233  139.7476  166.0961 C.ar    1  UNL1        0.0857
     11 S         141.7909  138.6432  165.1501 S.2     1  UNL1       -0.0739
     12 C         141.6831  139.1754  163.7518 C.ar    1  UNL1        0.0380
     13 C         141.2489  140.6088  163.8337 C.ar    1  UNL1        0.0138
     14 C         141.0883  140.9625  165.2825 C.ar    1  UNL1        0.1021
     15 H         141.6700  138.7003  167.9244 H       1  UNL1        0.1528
     16 C         139.6032  146.3745  161.4662 C.3     1  UNL1        0.0898
     17 N         139.8680  145.3607  162.5395 N.3     1  UNL1       -0.2645
     18 C         138.7652  144.4576  163.0068 C.3     1  UNL1        0.1237
     19 C         139.0299  143.4438  164.0801 C.3     1  UNL1        0.2197
     20 N         140.3976  143.3331  164.6863 N.pl3   1  UNL1       -0.1877
     21 C         141.5004  144.2362  164.2190 C.3     1  UNL1        0.2197
     22 C         141.2356  145.2500  163.1457 C.3     1  UNL1        0.1237
     23 C         141.9607  138.4087  162.4928 C.3     1  UNL1        0.1701
     24 O         141.4091  137.0245  162.3205 O.3     1  UNL1       -0.3768
     25 H         141.8206  136.4296  162.9668 H       1  UNL1        0.2109
@<TRIPOS>BOND
     1    16    17    1
     2    17    18    1
     3    18    19    1
     4    19    20    1
     5    20     1    1
     6     1     2    2
     7     2     3    1
     8     3     4   ar
     9     4     5   ar
    10     5     6   ar
    11     6     7   ar
    12     7     8   ar
    13     8     9    1
    14     9    10    1
    15    10    11   ar
    16    11    12   ar
    17    12    23    1
    18    23    24    1
    19    12    13   ar
    20    13    14   ar
    21    20    21    1
    22    21    22    1
    23    22    17    1
    24    14     1    1
    25     8     3   ar
    26    14    10   ar
    27     9    15    1
    28    24    25    1
@<TRIPOS>MOLECULE
*****
 25 28 0 0 0
SMALL
GASTEIGER

@<TRIPOS>ATOM
      1 C         140.7041  142.2715  165.7263 C.2     1  UNL1        0.3256
      2 N         140.4794  142.7326  167.1358 N.2     1  UNL1       -0.0388
      3 C         140.6584  141.9636  168.4113 C.ar    1  UNL1        0.2064
      4 C         140.3234  142.8026  169.6087 C.ar    1  UNL1        0.0479
      5 C         140.4363  142.2215  170.9869 C.ar    1  UNL1        0.0039
      6 C         140.8841  140.8014  171.1677 C.ar    1  UNL1        0.0015
      7 C         141.2191  139.9624  169.9703 C.ar    1  UNL1        0.0184
      8 C         141.1063  140.5435  168.5921 C.ar    1  UNL1        0.0923
      9 N         141.4858  139.5417  167.5421 N.pl3   1  UNL1       -0.3045
     10 C         141.5111  139.7125  166.0521 C.ar    1  UNL1        0.0857
     11 S         141.9133  138.6236  165.1022 S.2     1  UNL1       -0.0739
     12 C         141.8140  139.1654  163.7070 C.ar    1  UNL1        0.0380
     13 C         141.3504  140.5893  163.7947 C.ar    1  UNL1        0.0138
     14 C         141.1632  140.9274  165.2440 C.ar    1  UNL1        0.1021
     15 H         141.7536  138.6548  167.8750 H       1  UNL1        0.1528
     16 C         139.6232  146.3413  161.4522 C.3     1  UNL1        0.0898
     17 N         139.8934  145.3239  162.5207 N.3     1  UNL1       -0.2645
     18 C         141.2583  145.2259  163.1351 C.3     1  UNL1        0.1237
     19 C         141.5286  144.2085  164.2037 C.3     1  UNL1        0.2197
     20 N         140.4339  143.2889  164.6578 N.pl3   1  UNL1       -0.1877
     21 C         139.0690  143.3869  164.0433 C.3     1  UNL1        0.2197
     22 C         138.7987  144.4043  162.9748 C.3     1  UNL1        0.1237
     23 C         142.1239  138.4150  162.4457 C.3     1  UNL1        0.1701
     24 O         141.5168  137.0641  162.2082 O.3     1  UNL1       -0.3768
     25 H         141.8627  136.4350  162.8604 H       1  UNL1        0.2109
@<TRIPOS>BOND
     1    16    17    1
     2    17    18    1
     3    18    19    1
     4    19    20    1
     5    20     1    1
     6     1     2    2
     7     2     3    1
     8     3     4   ar
     9     4     5   ar
    10     5     6   ar
    11     6     7   ar
    12     7     8   ar
    13     8     9    1
    14     9    10    1
    15    10    11   ar
    16    11    12   ar
    17    12    23    1
    18    23    24    1
    19    12    13   ar
    20    13    14   ar
    21    20    21    1
    22    21    22    1
    23    22    17    1
    24    14     1    1
    25     8     3   ar
    26    14    10   ar
    27     9    15    1
    28    24    25    1
@<TRIPOS>MOLECULE
*****
 25 28 0 0 0
SMALL
GASTEIGER

@<TRIPOS>ATOM
      1 C         140.7093  141.1026  165.4407 C.2     1  UNL1        0.3256
      2 N         140.2166  140.5745  166.7553 N.2     1  UNL1       -0.0388
      3 C         140.8244  140.7397  168.1167 C.ar    1  UNL1        0.2064
      4 C         140.0085  140.0486  169.1687 C.ar    1  UNL1        0.0479
      5 C         140.4433  140.0917  170.6036 C.ar    1  UNL1        0.0039
      6 C         141.6941  140.8258  170.9865 C.ar    1  UNL1        0.0015
      7 C         142.5100  141.5168  169.9346 C.ar    1  UNL1        0.0184
      8 C         142.0752  141.4738  168.4997 C.ar    1  UNL1        0.0923
      9 N         143.0270  142.2240  167.6158 N.pl3   1  UNL1       -0.3045
     10 C         142.9632  142.4255  166.1307 C.ar    1  UNL1        0.0857
     11 S         143.9865  143.2032  165.3575 S.2     1  UNL1       -0.0739
     12 C         143.5875  143.1848  163.9117 C.ar    1  UNL1        0.0380
     13 C         142.3176  142.3956  163.7913 C.ar    1  UNL1        0.0138
     14 C         141.9317  141.9263  165.1628 C.ar    1  UNL1        0.1021
     15 H         143.7952  142.6391  168.0705 H       1  UNL1        0.1528
     16 C         137.3464  139.7399  160.6623 C.3     1  UNL1        0.0898
     17 N         138.1871  140.0806  161.8569 N.3     1  UNL1       -0.2645
     18 C         137.8491  141.2777  162.6951 C.3     1  UNL1        0.1237
     19 C         138.6898  141.6184  163.8898 C.3     1  UNL1        0.2197
     20 N         139.8686  140.7619  164.2461 N.pl3   1  UNL1       -0.1877
     21 C         140.2067  139.5648  163.4079 C.3     1  UNL1        0.2197
     22 C         139.3660  139.2241  162.2132 C.3     1  UNL1        0.1237
     23 C         144.3285  143.8404  162.7843 C.3     1  UNL1        0.1701
     24 O         144.1191  145.2975  162.4961 O.3     1  UNL1       -0.3768
     25 H         143.2078  145.4400  162.1959 H       1  UNL1        0.2109
@<TRIPOS>BOND
     1    16    17    1
     2    17    18    1
     3    18    19    1
     4    19    20    1
     5    20     1    1
     6     1     2    2
     7     2     3    1
     8     3     4   ar
     9     4     5   ar
    10     5     6   ar
    11     6     7   ar
    12     7     8   ar
    13     8     9    1
    14     9    10    1
    15    10    11   ar
    16    11    12   ar
    17    12    23    1
    18    23    24    1
    19    12    13   ar
    20    13    14   ar
    21    20    21    1
    22    21    22    1
    23    22    17    1
    24    14     1    1
    25     8     3   ar
    26    14    10   ar
    27     9    15    1
    28    24    25    1
@<TRIPOS>MOLECULE
*****
 25 28 0 0 0
SMALL
GASTEIGER

@<TRIPOS>ATOM
      1 C         141.6519  140.7606  165.3755 C.2     1  UNL1        0.3256
      2 N         142.1586  140.2526  166.6928 N.2     1  UNL1       -0.0388
      3 C         141.9422  140.8255  168.0621 C.ar    1  UNL1        0.2064
      4 C         142.6271  140.0045  169.1141 C.ar    1  UNL1        0.0479
      5 C         142.5354  140.4061  170.5564 C.ar    1  UNL1        0.0039
      6 C         141.7588  141.6286  170.9467 C.ar    1  UNL1        0.0015
      7 C         141.0738  142.4496  169.8946 C.ar    1  UNL1        0.0184
      8 C         141.1655  142.0480  168.4523 C.ar    1  UNL1        0.0923
      9 N         140.4135  142.9995  167.5696 N.pl3   1  UNL1       -0.3045
     10 C         140.2524  142.9636  166.0787 C.ar    1  UNL1        0.0857
     11 S         139.4682  143.9833  165.3074 S.2     1  UNL1       -0.0739
     12 C         139.5346  143.6172  163.8543 C.ar    1  UNL1        0.0380
     13 C         140.3599  142.3711  163.7275 C.ar    1  UNL1        0.0138
     14 C         140.8035  141.9671  165.1023 C.ar    1  UNL1        0.1021
     15 H         139.9666  143.7464  168.0296 H       1  UNL1        0.1528
     16 C         143.2265  137.5413  160.5635 C.3     1  UNL1        0.0898
     17 N         142.8329  138.3461  161.7665 N.3     1  UNL1       -0.2645
     18 C         143.6984  139.4822  162.2248 C.3     1  UNL1        0.1237
     19 C         143.3048  140.2871  163.4278 C.3     1  UNL1        0.2197
     20 N         142.0455  139.9558  164.1725 N.pl3   1  UNL1       -0.1877
     21 C         141.1800  138.8197  163.7142 C.3     1  UNL1        0.2197
     22 C         141.5736  138.0148  162.5112 C.3     1  UNL1        0.1237
     23 C         138.8890  144.3659  162.7261 C.3     1  UNL1        0.1701
     24 O         137.3944  144.4696  162.6530 O.3     1  UNL1       -0.3768
     25 H         137.0162  143.5894  162.5010 H       1  UNL1        0.2109
@<TRIPOS>BOND
     1    16    17    1
     2    17    18    1
     3    18    19    1
     4    19    20    1
     5    20     1    1
     6     1     2    2
     7     2     3    1
     8     3     4   ar
     9     4     5   ar
    10     5     6   ar
    11     6     7   ar
    12     7     8   ar
    13     8     9    1
    14     9    10    1
    15    10    11   ar
    16    11    12   ar
    17    12    23    1
    18    23    24    1
    19    12    13   ar
    20    13    14   ar
    21    20    21    1
    22    21    22    1
    23    22    17    1
    24    14     1    1
    25     8     3   ar
    26    14    10   ar
    27     9    15    1
    28    24    25    1
@<TRIPOS>MOLECULE
*****
 25 28 0 0 0
SMALL
GASTEIGER

@<TRIPOS>ATOM
      1 C         141.2159  139.5997  162.7465 C.2     1  UNL1        0.3256
      2 N         140.2118  138.7848  163.5066 N.2     1  UNL1       -0.0388
      3 C         139.6405  139.0388  164.8701 C.ar    1  UNL1        0.2064
      4 C         138.6604  137.9726  165.2609 C.ar    1  UNL1        0.0479
      5 C         137.9720  138.0383  166.5920 C.ar    1  UNL1        0.0039
      6 C         138.2637  139.1700  167.5322 C.ar    1  UNL1        0.0015
      7 C         139.2438  140.2362  167.1414 C.ar    1  UNL1        0.0184
      8 C         139.9322  140.1705  165.8103 C.ar    1  UNL1        0.0923
      9 N         140.8672  141.3278  165.6192 N.pl3   1  UNL1       -0.3045
     10 C         141.7415  141.6392  164.4408 C.ar    1  UNL1        0.0857
     11 S         142.6393  142.8387  164.3719 S.2     1  UNL1       -0.0739
     12 C         143.3494  142.8111  163.0509 C.ar    1  UNL1        0.0380
     13 C         142.8903  141.5944  162.3034 C.ar    1  UNL1        0.0138
     14 C         141.8966  140.8701  163.1623 C.ar    1  UNL1        0.1021
     15 H         140.9132  141.9676  166.3661 H       1  UNL1        0.1528
     16 C         142.7061  137.5010  157.3268 C.3     1  UNL1        0.0898
     17 N         142.3336  138.0257  158.6817 N.3     1  UNL1       -0.2645
     18 C         141.2392  139.0425  158.8173 C.3     1  UNL1        0.1237
     19 C         140.8666  139.5673  160.1723 C.3     1  UNL1        0.2197
     20 N         141.5884  139.0751  161.3916 N.pl3   1  UNL1       -0.1877
     21 C         142.6828  138.0582  161.2560 C.3     1  UNL1        0.2197
     22 C         143.0554  137.5335  159.9011 C.3     1  UNL1        0.1237
     23 C         144.3438  143.8227  162.5633 C.3     1  UNL1        0.1701
     24 O         144.0151  145.2851  162.6193 O.3     1  UNL1       -0.3768
     25 H         143.2808  145.4749  162.0146 H       1  UNL1        0.2109
@<TRIPOS>BOND
     1    16    17    1
     2    17    18    1
     3    18    19    1
     4    19    20    1
     5    20     1    1
     6     1     2    2
     7     2     3    1
     8     3     4   ar
     9     4     5   ar
    10     5     6   ar
    11     6     7   ar
    12     7     8   ar
    13     8     9    1
    14     9    10    1
    15    10    11   ar
    16    11    12   ar
    17    12    23    1
    18    23    24    1
    19    12    13   ar
    20    13    14   ar
    21    20    21    1
    22    21    22    1
    23    22    17    1
    24    14     1    1
    25     8     3   ar
    26    14    10   ar
    27     9    15    1
    28    24    25    1
@<TRIPOS>MOLECULE
*****
 25 28 0 0 0
SMALL
GASTEIGER

@<TRIPOS>ATOM
      1 C         141.5920  141.2008  165.2177 C.2     1  UNL1        0.3256
      2 N         141.9873  141.8648  166.5033 N.2     1  UNL1       -0.0388
      3 C         141.3619  141.7242  167.8595 C.ar    1  UNL1        0.2064
      4 C         142.0684  142.5679  168.8789 C.ar    1  UNL1        0.0479
      5 C         141.5997  142.5721  170.3037 C.ar    1  UNL1        0.0039
      6 C         140.4246  141.7327  170.7092 C.ar    1  UNL1        0.0015
      7 C         139.7181  140.8891  169.6899 C.ar    1  UNL1        0.0184
      8 C         140.1868  140.8848  168.2650 C.ar    1  UNL1        0.0923
      9 N         139.3468  139.9787  167.4145 N.pl3   1  UNL1       -0.3045
     10 C         139.4744  139.6882  165.9484 C.ar    1  UNL1        0.0857
     11 S         138.5632  138.7543  165.2086 S.2     1  UNL1       -0.0739
     12 C         138.9991  138.7210  163.7737 C.ar    1  UNL1        0.0380
     13 C         140.1799  139.6343  163.6268 C.ar    1  UNL1        0.0138
     14 C         140.4737  140.2321  164.9708 C.ar    1  UNL1        0.1021
     15 H         138.6149  139.5131  167.8800 H       1  UNL1        0.1528
     16 C         144.9246  142.6050  160.4301 C.3     1  UNL1        0.0898
     17 N         144.0915  142.2540  161.6270 N.3     1  UNL1       -0.2645
     18 C         142.8824  143.0744  161.9659 C.3     1  UNL1        0.1237
     19 C         142.0491  142.7234  163.1628 C.3     1  UNL1        0.2197
     20 N         142.4252  141.5518  164.0208 N.pl3   1  UNL1       -0.1877
     21 C         143.6343  140.7314  163.6820 C.3     1  UNL1        0.2197
     22 C         144.4675  141.0824  162.4851 C.3     1  UNL1        0.1237
     23 C         138.3655  137.9157  162.6783 C.3     1  UNL1        0.1701
     24 O         137.3622  138.5528  161.7632 O.3     1  UNL1       -0.3768
     25 H         136.5694  138.7913  162.2686 H       1  UNL1        0.2109
@<TRIPOS>BOND
     1    16    17    1
     2    17    18    1
     3    18    19    1
     4    19    20    1
     5    20     1    1
     6     1     2    2
     7     2     3    1
     8     3     4   ar
     9     4     5   ar
    10     5     6   ar
    11     6     7   ar
    12     7     8   ar
    13     8     9    1
    14     9    10    1
    15    10    11   ar
    16    11    12   ar
    17    12    23    1
    18    23    24    1
    19    12    13   ar
    20    13    14   ar
    21    20    21    1
    22    21    22    1
    23    22    17    1
    24    14     1    1
    25     8     3   ar
    26    14    10   ar
    27     9    15    1
    28    24    25    1
@<TRIPOS>MOLECULE
*****
 25 28 0 0 0
SMALL
GASTEIGER

@<TRIPOS>ATOM
      1 C         140.6268  142.3437  165.3112 C.2     1  UNL1        0.3256
      2 N         140.9891  143.4260  164.3379 N.2     1  UNL1       -0.0388
      3 C         140.5886  143.5623  162.8988 C.ar    1  UNL1        0.2064
      4 C         141.1711  144.7996  162.2826 C.ar    1  UNL1        0.0479
      5 C         140.8918  145.1244  160.8451 C.ar    1  UNL1        0.0039
      6 C         140.0300  144.2118  160.0238 C.ar    1  UNL1        0.0015
      7 C         139.4475  142.9745  160.6399 C.ar    1  UNL1        0.0184
      8 C         139.7269  142.6497  162.0774 C.ar    1  UNL1        0.0923
      9 N         139.0527  141.3756  162.4924 N.pl3   1  UNL1       -0.3045
     10 C         139.0738  140.6993  163.8311 C.ar    1  UNL1        0.0857
     11 S         138.3518  139.4168  164.1206 S.2     1  UNL1       -0.0739
     12 C         138.6061  139.0550  165.5540 C.ar    1  UNL1        0.0380
     13 C         139.4853  140.1140  166.1503 C.ar    1  UNL1        0.0138
     14 C         139.7743  141.1302  165.0856 C.ar    1  UNL1        0.1021
     15 H         138.5268  140.9234  161.7937 H       1  UNL1        0.1528
     16 C         142.8853  142.9482  170.8368 C.3     1  UNL1        0.0898
     17 N         142.3207  142.7970  169.4554 N.3     1  UNL1       -0.2645
     18 C         143.1895  142.2938  168.3410 C.3     1  UNL1        0.1237
     19 C         142.6249  142.1426  166.9595 C.3     1  UNL1        0.2197
     20 N         141.1914  142.4948  166.6925 N.pl3   1  UNL1       -0.1877
     21 C         140.3226  142.9981  167.8070 C.3     1  UNL1        0.2197
     22 C         140.8872  143.1492  169.1884 C.3     1  UNL1        0.1237
     23 C         138.0744  137.8465  166.2658 C.3     1  UNL1        0.1701
     24 O         137.0811  138.0077  167.3781 O.3     1  UNL1       -0.3768
     25 H         137.5019  138.4632  168.1240 H       1  UNL1        0.2109
@<TRIPOS>BOND
     1    16    17    1
     2    17    18    1
     3    18    19    1
     4    19    20    1
     5    20     1    1
     6     1     2    2
     7     2     3    1
     8     3     4   ar
     9     4     5   ar
    10     5     6   ar
    11     6     7   ar
    12     7     8   ar
    13     8     9    1
    14     9    10    1
    15    10    11   ar
    16    11    12   ar
    17    12    23    1
    18    23    24    1
    19    12    13   ar
    20    13    14   ar
    21    20    21    1
    22    21    22    1
    23    22    17    1
    24    14     1    1
    25     8     3   ar
    26    14    10   ar
    27     9    15    1
    28    24    25    1
@<TRIPOS>MOLECULE
*****
 25 28 0 0 0
SMALL
GASTEIGER

@<TRIPOS>ATOM
      1 C         140.5368  140.7398  161.9710 C.2     1  UNL1        0.3256
      2 N         140.2259  139.4524  162.6751 N.2     1  UNL1       -0.0388
      3 C         139.4541  139.2430  163.9442 C.ar    1  UNL1        0.2064
      4 C         139.3749  137.7890  164.3040 C.ar    1  UNL1        0.0479
      5 C         138.6442  137.3616  165.5422 C.ar    1  UNL1        0.0039
      6 C         137.9927  138.3881  166.4207 C.ar    1  UNL1        0.0015
      7 C         138.0719  139.8422  166.0609 C.ar    1  UNL1        0.0184
      8 C         138.8026  140.2696  164.8226 C.ar    1  UNL1        0.0923
      9 N         138.7620  141.7590  164.6489 N.pl3   1  UNL1       -0.3045
     10 C         139.3628  142.5897  163.5540 C.ar    1  UNL1        0.0857
     11 S         139.2506  144.0842  163.4941 S.2     1  UNL1       -0.0739
     12 C         139.9711  144.5544  162.2653 C.ar    1  UNL1        0.0380
     13 C         140.5286  143.3503  161.5658 C.ar    1  UNL1        0.0138
     14 C         140.1527  142.1360  162.3622 C.ar    1  UNL1        0.1021
     15 H         138.2768  142.2572  165.3458 H       1  UNL1        0.1528
     16 C         143.7404  140.2386  156.9228 C.3     1  UNL1        0.0898
     17 N         142.9395  140.3639  158.1848 N.3     1  UNL1       -0.2645
     18 C         141.4409  140.3335  158.1282 C.3     1  UNL1        0.1237
     19 C         140.6400  140.4588  159.3902 C.3     1  UNL1        0.2197
     20 N         141.3377  140.6145  160.7090 N.pl3   1  UNL1       -0.1877
     21 C         142.8363  140.6449  160.7656 C.3     1  UNL1        0.2197
     22 C         143.6373  140.5196  159.5035 C.3     1  UNL1        0.1237
     23 C         140.1096  145.9785  161.8153 C.3     1  UNL1        0.1701
     24 O         138.9494  146.6779  161.1712 O.3     1  UNL1       -0.3768
     25 H         138.7504  146.2573  160.3200 H       1  UNL1        0.2109
@<TRIPOS>BOND
     1    16    17    1
     2    17    18    1
     3    18    19    1
     4    19    20    1
     5    20     1    1
     6     1     2    2
     7     2     3    1
     8     3     4   ar
     9     4     5   ar
    10     5     6   ar
    11     6     7   ar
    12     7     8   ar
    13     8     9    1
    14     9    10    1
    15    10    11   ar
    16    11    12   ar
    17    12    23    1
    18    23    24    1
    19    12    13   ar
    20    13    14   ar
    21    20    21    1
    22    21    22    1
    23    22    17    1
    24    14     1    1
    25     8     3   ar
    26    14    10   ar
    27     9    15    1
    28    24    25    1
