@<TRIPOS>MOLECULE
*****
 27 29 0 0 0
SMALL
GASTEIGER

@<TRIPOS>ATOM
      1 C         138.4591  140.4999  165.1455 C.ar    1  UNL1        0.1392
      2 C         139.4002  141.5683  165.6173 C.ar    1  UNL1        0.0366
      3 C         139.9862  141.4961  166.9963 C.ar    1  UNL1       -0.0011
      4 C         139.6309  140.3555  167.9034 C.ar    1  UNL1       -0.0206
      5 C         138.6897  139.2871  167.4315 C.ar    1  UNL1       -0.0011
      6 C         138.1038  139.3593  166.0526 C.ar    1  UNL1        0.0366
      7 O         137.8731  140.5721  163.7665 O.3     1  UNL1       -0.4671
      8 C         137.3576  141.8778  163.2381 C.3     1  UNL1        0.2752
      9 C         138.2008  142.6943  162.3041 C.2     1  UNL1        0.2343
     10 O         137.7036  143.0068  160.9239 O.2     1  UNL1       -0.2858
     11 C         142.2222  144.2063  163.6430 C.ar    1  UNL1       -0.0030
     12 C         142.1115  142.8783  162.9544 C.ar    1  UNL1       -0.0011
     13 C         140.7710  142.3743  162.5081 C.ar    1  UNL1        0.0219
     14 C         139.5413  143.1983  162.7504 C.ar    1  UNL1        0.1196
     15 N         139.6520  144.5263  163.4390 N.ar    1  UNL1       -0.2412
     16 C         140.9925  145.0303  163.8853 C.ar    1  UNL1        0.0946
     17 C         144.4549  143.8350  164.9186 C.3     1  UNL1        0.0051
     18 C         143.5626  144.7103  164.0893 C.3     1  UNL1        0.0279
     19 C         140.2168  140.2833  169.2823 C.3     1  UNL1        0.0468
     20 C         141.2385  141.2920  169.7168 C.3     1  UNL1        0.1369
     21 S         142.6955  141.2809  169.3605 S.3     1  UNL1       -0.0482
     22 C         143.3400  142.4709  170.0074 C.2     1  UNL1        0.2792
     23 O         144.7888  142.8481  169.9145 O.2     1  UNL1       -0.2625
     24 N         142.2812  143.2175  170.7635 N.am    1  UNL1       -0.2460
     25 C         140.9825  142.4889  170.5839 C.2     1  UNL1        0.2392
     26 O         139.6599  142.8873  171.1688 O.2     1  UNL1       -0.2737
     27 H         142.4153  144.0412  171.2859 H       1  UNL1        0.1583
@<TRIPOS>BOND
     1    17    18    1
     2    18    11    1
     3    11    12   ar
     4    12    13   ar
     5    13    14   ar
     6    14     9    1
     7     9    10    2
     8     9     8    1
     9     8     7    1
    10     7     1    1
    11     1     2   ar
    12     2     3   ar
    13     3     4   ar
    14     4    19    1
    15    19    20    1
    16    20    21    1
    17    21    22    1
    18    22    23    2
    19    22    24   am
    20    24    25   am
    21    25    26    2
    22     4     5   ar
    23     5     6   ar
    24    14    15   ar
    25    15    16   ar
    26    16    11   ar
    27     6     1   ar
    28    25    20    1
    29    24    27    1
@<TRIPOS>MOLECULE
*****
 27 29 0 0 0
SMALL
GASTEIGER

@<TRIPOS>ATOM
      1 C         139.6719  138.3223  164.6064 C.ar    1  UNL1        0.1392
      2 C         139.1626  139.2207  165.6942 C.ar    1  UNL1        0.0366
      3 C         140.1242  139.8527  166.6565 C.ar    1  UNL1       -0.0011
      4 C         141.5950  139.5862  166.5310 C.ar    1  UNL1       -0.0206
      5 C         142.1042  138.6878  165.4430 C.ar    1  UNL1       -0.0011
      6 C         141.1427  138.0558  164.4808 C.ar    1  UNL1        0.0366
      7 O         138.7103  137.6902  163.6440 O.3     1  UNL1       -0.4671
      8 C         138.7441  138.0683  162.1929 C.3     1  UNL1        0.2752
      9 C         138.0194  139.2935  161.7200 C.2     1  UNL1        0.2343
     10 O         137.0034  139.1868  160.6217 O.2     1  UNL1       -0.2858
     11 C         138.8933  143.2893  163.5961 C.ar    1  UNL1       -0.0030
     12 C         140.0211  142.4149  163.1341 C.ar    1  UNL1       -0.0011
     13 C         139.7298  141.0830  162.5087 C.ar    1  UNL1        0.0219
     14 C         138.3107  140.6255  162.3453 C.ar    1  UNL1        0.1196
     15 N         137.1829  141.4998  162.8073 N.ar    1  UNL1       -0.2412
     16 C         137.4742  142.8318  163.4327 C.ar    1  UNL1        0.0946
     17 C         138.6332  144.9500  165.5770 C.3     1  UNL1        0.0051
     18 C         139.1846  144.6213  164.2214 C.3     1  UNL1        0.0279
     19 C         142.5566  140.2182  167.4932 C.3     1  UNL1        0.0468
     20 C         142.1609  140.4185  168.9261 C.3     1  UNL1        0.1369
     21 S         141.4534  141.6167  169.4862 S.3     1  UNL1       -0.0482
     22 C         141.2585  141.3945  170.9568 C.2     1  UNL1        0.2792
     23 O         140.5933  142.3416  171.9111 O.2     1  UNL1       -0.2625
     24 N         141.8454  140.0588  171.3056 N.am    1  UNL1       -0.2460
     25 C         142.4031  139.4557  170.0505 C.2     1  UNL1        0.2392
     26 O         143.0836  138.1235  169.9395 O.2     1  UNL1       -0.2737
     27 H         141.8617  139.6499  172.2010 H       1  UNL1        0.1583
@<TRIPOS>BOND
     1    17    18    1
     2    18    11    1
     3    11    12   ar
     4    12    13   ar
     5    13    14   ar
     6    14     9    1
     7     9    10    2
     8     9     8    1
     9     8     7    1
    10     7     1    1
    11     1     2   ar
    12     2     3   ar
    13     3     4   ar
    14     4    19    1
    15    19    20    1
    16    20    21    1
    17    21    22    1
    18    22    23    2
    19    22    24   am
    20    24    25   am
    21    25    26    2
    22     4     5   ar
    23     5     6   ar
    24    14    15   ar
    25    15    16   ar
    26    16    11   ar
    27     6     1   ar
    28    25    20    1
    29    24    27    1
@<TRIPOS>MOLECULE
*****
 27 29 0 0 0
SMALL
GASTEIGER

@<TRIPOS>ATOM
      1 C         138.6296  140.0160  165.1376 C.ar    1  UNL1        0.1392
      2 C         139.6877  141.0149  165.5019 C.ar    1  UNL1        0.0366
      3 C         140.1616  141.1215  166.9211 C.ar    1  UNL1       -0.0011
      4 C         139.5774  140.2293  167.9760 C.ar    1  UNL1       -0.0206
      5 C         138.5192  139.2305  167.6116 C.ar    1  UNL1       -0.0011
      6 C         138.0454  139.1238  166.1925 C.ar    1  UNL1        0.0366
      7 O         138.1556  139.9094  163.7184 O.3     1  UNL1       -0.4671
      8 C         138.3863  138.6458  162.9437 C.3     1  UNL1        0.2752
      9 C         139.5806  138.5249  162.0443 C.2     1  UNL1        0.2343
     10 O         139.4090  138.0624  160.6278 O.2     1  UNL1       -0.2858
     11 C         143.6785  139.5496  163.5958 C.ar    1  UNL1       -0.0030
     12 C         142.8115  138.5841  164.3482 C.ar    1  UNL1       -0.0011
     13 C         141.4455  138.2425  163.8310 C.ar    1  UNL1        0.0219
     14 C         140.9466  138.8664  162.5615 C.ar    1  UNL1        0.1196
     15 N         141.8136  139.8319  161.8091 N.ar    1  UNL1       -0.2412
     16 C         143.1796  140.1735  162.3263 C.ar    1  UNL1        0.0946
     17 C         145.6109  141.2615  163.8871 C.3     1  UNL1        0.0051
     18 C         145.0445  139.8911  164.1130 C.3     1  UNL1        0.0279
     19 C         140.0513  140.3360  169.3951 C.3     1  UNL1        0.0468
     20 C         141.0897  141.3534  169.7646 C.3     1  UNL1        0.1369
     21 S         142.5523  141.2780  169.4407 S.3     1  UNL1       -0.0482
     22 C         143.2144  142.5028  169.9987 C.2     1  UNL1        0.2792
     23 O         144.6738  142.8366  169.9045 O.2     1  UNL1       -0.2625
     24 N         142.1609  143.3352  170.6676 N.am    1  UNL1       -0.2460
     25 C         140.8478  142.6248  170.5229 C.2     1  UNL1        0.2392
     26 O         139.5250  143.1020  171.0448 O.2     1  UNL1       -0.2737
     27 H         142.3059  144.1965  171.1218 H       1  UNL1        0.1583
@<TRIPOS>BOND
     1    17    18    1
     2    18    11    1
     3    11    12   ar
     4    12    13   ar
     5    13    14   ar
     6    14     9    1
     7     9    10    2
     8     9     8    1
     9     8     7    1
    10     7     1    1
    11     1     2   ar
    12     2     3   ar
    13     3     4   ar
    14     4    19    1
    15    19    20    1
    16    20    21    1
    17    21    22    1
    18    22    23    2
    19    22    24   am
    20    24    25   am
    21    25    26    2
    22     4     5   ar
    23     5     6   ar
    24    14    15   ar
    25    15    16   ar
    26    16    11   ar
    27     6     1   ar
    28    25    20    1
    29    24    27    1
@<TRIPOS>MOLECULE
*****
 27 29 0 0 0
SMALL
GASTEIGER

@<TRIPOS>ATOM
      1 C         138.7141  142.5457  164.5875 C.ar    1  UNL1        0.1392
      2 C         139.8097  142.9690  165.5204 C.ar    1  UNL1        0.0366
      3 C         140.3456  142.0030  166.5352 C.ar    1  UNL1       -0.0011
      4 C         139.7859  140.6138  166.6171 C.ar    1  UNL1       -0.0206
      5 C         138.6902  140.1905  165.6841 C.ar    1  UNL1       -0.0011
      6 C         138.1543  141.1564  164.6693 C.ar    1  UNL1        0.0366
      7 O         138.1781  143.5116  163.5727 O.3     1  UNL1       -0.4671
      8 C         138.7492  144.8955  163.4798 C.3     1  UNL1        0.2752
      9 C         139.8379  145.1929  162.4918 C.2     1  UNL1        0.2343
     10 O         139.5907  146.1596  161.3718 O.2     1  UNL1       -0.2858
     11 C         143.8455  143.1848  162.8874 C.ar    1  UNL1       -0.0030
     12 C         143.5790  144.4750  163.6045 C.ar    1  UNL1       -0.0011
     13 C         142.2432  145.1444  163.4726 C.ar    1  UNL1        0.0219
     14 C         141.1738  144.5235  162.6237 C.ar    1  UNL1        0.1196
     15 N         141.4402  143.2333  161.9066 N.ar    1  UNL1       -0.2412
     16 C         142.7761  142.5640  162.0384 C.ar    1  UNL1        0.0946
     17 C         145.3308  141.3051  163.8926 C.3     1  UNL1        0.0051
     18 C         145.1814  142.5155  163.0193 C.3     1  UNL1        0.0279
     19 C         140.3218  139.6478  167.6318 C.3     1  UNL1        0.0468
     20 C         140.7218  140.1350  168.9929 C.3     1  UNL1        0.1369
     21 S         139.9714  141.1285  169.8294 S.3     1  UNL1       -0.0482
     22 C         140.7282  141.3218  171.1100 C.2     1  UNL1        0.2792
     23 O         140.3358  142.2297  172.2377 O.2     1  UNL1       -0.2625
     24 N         141.9465  140.4477  171.0648 N.am    1  UNL1       -0.2460
     25 C         141.9425  139.7143  169.7564 C.2     1  UNL1        0.2392
     26 O         142.9774  138.7325  169.2929 O.2     1  UNL1       -0.2737
     27 H         142.6289  140.3692  171.7701 H       1  UNL1        0.1583
@<TRIPOS>BOND
     1    17    18    1
     2    18    11    1
     3    11    12   ar
     4    12    13   ar
     5    13    14   ar
     6    14     9    1
     7     9    10    2
     8     9     8    1
     9     8     7    1
    10     7     1    1
    11     1     2   ar
    12     2     3   ar
    13     3     4   ar
    14     4    19    1
    15    19    20    1
    16    20    21    1
    17    21    22    1
    18    22    23    2
    19    22    24   am
    20    24    25   am
    21    25    26    2
    22     4     5   ar
    23     5     6   ar
    24    14    15   ar
    25    15    16   ar
    26    16    11   ar
    27     6     1   ar
    28    25    20    1
    29    24    27    1
@<TRIPOS>MOLECULE
*****
 27 29 0 0 0
SMALL
GASTEIGER

@<TRIPOS>ATOM
      1 C         138.3334  144.1070  162.7699 C.ar    1  UNL1        0.1392
      2 C         138.4685  144.0079  164.2605 C.ar    1  UNL1        0.0366
      3 C         138.4274  142.6661  164.9298 C.ar    1  UNL1       -0.0011
      4 C         138.2514  141.4234  164.1084 C.ar    1  UNL1       -0.0206
      5 C         138.1163  141.5225  162.6177 C.ar    1  UNL1       -0.0011
      6 C         138.1573  142.8643  161.9485 C.ar    1  UNL1        0.0366
      7 O         138.3744  145.4488  162.1006 O.3     1  UNL1       -0.4671
      8 C         139.6920  146.1164  161.8389 C.3     1  UNL1        0.2752
      9 C         140.7786  145.3746  161.1185 C.2     1  UNL1        0.2343
     10 O         140.7639  145.2910  159.6209 O.2     1  UNL1       -0.2858
     11 C         144.0823  143.3999  163.4501 C.ar    1  UNL1       -0.0030
     12 C         142.9589  144.0825  164.1725 C.ar    1  UNL1       -0.0011
     13 C         141.8576  144.7408  163.3953 C.ar    1  UNL1        0.0219
     14 C         141.8798  144.7164  161.8957 C.ar    1  UNL1        0.1196
     15 N         143.0032  144.0338  161.1733 N.ar    1  UNL1       -0.2412
     16 C         144.1044  143.3755  161.9505 C.ar    1  UNL1        0.0946
     17 C         145.6724  141.3807  163.8293 C.3     1  UNL1        0.0051
     18 C         145.1835  142.7417  164.2273 C.3     1  UNL1        0.0279
     19 C         138.2103  140.0816  164.7776 C.3     1  UNL1        0.0468
     20 C         139.4133  139.1864  164.7375 C.3     1  UNL1        0.1369
     21 S         140.6642  139.3538  165.5481 S.3     1  UNL1       -0.0482
     22 C         141.6005  138.2376  165.1914 C.2     1  UNL1        0.2792
     23 O         142.9689  138.0173  165.7651 O.2     1  UNL1       -0.2625
     24 N         140.9283  137.3803  164.1603 N.am    1  UNL1       -0.2460
     25 C         139.5765  137.9667  163.8798 C.2     1  UNL1        0.2392
     26 O         138.5655  137.4280  162.9115 O.2     1  UNL1       -0.2737
     27 H         141.3077  136.5743  163.7412 H       1  UNL1        0.1583
@<TRIPOS>BOND
     1    17    18    1
     2    18    11    1
     3    11    12   ar
     4    12    13   ar
     5    13    14   ar
     6    14     9    1
     7     9    10    2
     8     9     8    1
     9     8     7    1
    10     7     1    1
    11     1     2   ar
    12     2     3   ar
    13     3     4   ar
    14     4    19    1
    15    19    20    1
    16    20    21    1
    17    21    22    1
    18    22    23    2
    19    22    24   am
    20    24    25   am
    21    25    26    2
    22     4     5   ar
    23     5     6   ar
    24    14    15   ar
    25    15    16   ar
    26    16    11   ar
    27     6     1   ar
    28    25    20    1
    29    24    27    1
@<TRIPOS>MOLECULE
*****
 27 29 0 0 0
SMALL
GASTEIGER

@<TRIPOS>ATOM
      1 C         140.1111  144.0304  164.5770 C.ar    1  UNL1        0.1392
      2 C         139.6224  143.6596  165.9459 C.ar    1  UNL1        0.0366
      3 C         140.4989  142.8603  166.8641 C.ar    1  UNL1       -0.0011
      4 C         141.8640  142.4319  166.4135 C.ar    1  UNL1       -0.0206
      5 C         142.3526  142.8028  165.0446 C.ar    1  UNL1       -0.0011
      6 C         141.4762  143.6020  164.1264 C.ar    1  UNL1        0.0366
      7 O         139.2346  144.8296  163.6588 O.3     1  UNL1       -0.4671
      8 C         138.0319  144.1932  163.0276 C.3     1  UNL1        0.2752
      9 C         138.1948  142.9869  162.1511 C.2     1  UNL1        0.2343
     10 O         138.0015  143.1057  160.6684 O.2     1  UNL1       -0.2858
     11 C         139.2637  139.0119  163.9696 C.ar    1  UNL1       -0.0030
     12 C         138.2512  139.8943  164.6375 C.ar    1  UNL1       -0.0011
     13 C         137.8949  141.2193  164.0314 C.ar    1  UNL1        0.0219
     14 C         138.5511  141.6619  162.7573 C.ar    1  UNL1        0.1196
     15 N         139.5637  140.7796  162.0893 N.ar    1  UNL1       -0.2412
     16 C         139.9199  139.4546  162.6955 C.ar    1  UNL1        0.0946
     17 C         141.0415  137.2087  164.5508 C.3     1  UNL1        0.0051
     18 C         139.6200  137.6869  164.5758 C.3     1  UNL1        0.0279
     19 C         142.7404  141.6327  167.3317 C.3     1  UNL1        0.0468
     20 C         142.4845  141.6426  168.8096 C.3     1  UNL1        0.1369
     21 S         141.3086  141.0233  169.5050 S.3     1  UNL1       -0.0482
     22 C         141.4569  141.2715  170.9769 C.2     1  UNL1        0.2792
     23 O         140.5048  140.8253  172.0466 O.2     1  UNL1       -0.2625
     24 N         142.7247  142.0442  171.1912 N.am    1  UNL1       -0.2460
     25 C         143.3597  142.2736  169.8518 C.2     1  UNL1        0.2392
     26 O         144.6444  143.0054  169.5989 O.2     1  UNL1       -0.2737
     27 H         143.0778  142.3476  172.0587 H       1  UNL1        0.1583
@<TRIPOS>BOND
     1    17    18    1
     2    18    11    1
     3    11    12   ar
     4    12    13   ar
     5    13    14   ar
     6    14     9    1
     7     9    10    2
     8     9     8    1
     9     8     7    1
    10     7     1    1
    11     1     2   ar
    12     2     3   ar
    13     3     4   ar
    14     4    19    1
    15    19    20    1
    16    20    21    1
    17    21    22    1
    18    22    23    2
    19    22    24   am
    20    24    25   am
    21    25    26    2
    22     4     5   ar
    23     5     6   ar
    24    14    15   ar
    25    15    16   ar
    26    16    11   ar
    27     6     1   ar
    28    25    20    1
    29    24    27    1
@<TRIPOS>MOLECULE
*****
 27 29 0 0 0
SMALL
GASTEIGER

@<TRIPOS>ATOM
      1 C         143.4039  140.0512  164.4555 C.ar    1  UNL1        0.1392
      2 C         142.9588  141.3100  165.1390 C.ar    1  UNL1        0.0366
      3 C         142.6530  141.2982  166.6075 C.ar    1  UNL1       -0.0011
      4 C         142.7924  140.0276  167.3924 C.ar    1  UNL1       -0.0206
      5 C         143.2375  138.7687  166.7088 C.ar    1  UNL1       -0.0011
      6 C         143.5433  138.7806  165.2404 C.ar    1  UNL1        0.0366
      7 O         143.7097  140.0629  162.9870 O.3     1  UNL1       -0.4671
      8 C         142.8365  139.3030  162.0330 C.3     1  UNL1        0.2752
      9 C         141.3660  139.5918  161.9696 C.2     1  UNL1        0.2343
     10 O         140.7547  140.0949  160.6956 O.2     1  UNL1       -0.2858
     11 C         138.7881  138.9491  165.6016 C.ar    1  UNL1       -0.0030
     12 C         138.9017  140.3162  164.9950 C.ar    1  UNL1       -0.0011
     13 C         139.7610  140.5304  163.7843 C.ar    1  UNL1        0.0219
     14 C         140.5067  139.3776  163.1803 C.ar    1  UNL1        0.1196
     15 N         140.3931  138.0105  163.7869 N.ar    1  UNL1       -0.2412
     16 C         139.5338  137.7962  164.9976 C.ar    1  UNL1        0.0946
     17 C         137.2889  137.3994  167.0510 C.3     1  UNL1        0.0051
     18 C         137.9288  138.7348  166.8123 C.3     1  UNL1        0.0279
     19 C         142.4866  140.0158  168.8609 C.3     1  UNL1        0.0468
     20 C         141.9292  141.2421  169.5207 C.3     1  UNL1        0.1369
     21 S         140.5205  141.4198  170.0045 S.3     1  UNL1       -0.0482
     22 C         140.4032  142.7935  170.5954 C.2     1  UNL1        0.2792
     23 O         139.1668  143.3910  171.1990 O.2     1  UNL1       -0.2625
     24 N         141.7394  143.4648  170.4769 N.am    1  UNL1       -0.2460
     25 C         142.6825  142.5059  169.8126 C.2     1  UNL1        0.2392
     26 O         144.1255  142.7654  169.4960 O.2     1  UNL1       -0.2737
     27 H         141.9589  144.3749  170.7815 H       1  UNL1        0.1583
@<TRIPOS>BOND
     1    17    18    1
     2    18    11    1
     3    11    12   ar
     4    12    13   ar
     5    13    14   ar
     6    14     9    1
     7     9    10    2
     8     9     8    1
     9     8     7    1
    10     7     1    1
    11     1     2   ar
    12     2     3   ar
    13     3     4   ar
    14     4    19    1
    15    19    20    1
    16    20    21    1
    17    21    22    1
    18    22    23    2
    19    22    24   am
    20    24    25   am
    21    25    26    2
    22     4     5   ar
    23     5     6   ar
    24    14    15   ar
    25    15    16   ar
    26    16    11   ar
    27     6     1   ar
    28    25    20    1
    29    24    27    1
@<TRIPOS>MOLECULE
*****
 27 29 0 0 0
SMALL
GASTEIGER

@<TRIPOS>ATOM
      1 C         139.2680  138.8839  164.8221 C.ar    1  UNL1        0.1392
      2 C         140.7679  138.8821  164.8370 C.ar    1  UNL1        0.0366
      3 C         141.5059  139.2620  166.0865 C.ar    1  UNL1       -0.0011
      4 C         140.7440  139.6435  167.3210 C.ar    1  UNL1       -0.0206
      5 C         139.2441  139.6453  167.3060 C.ar    1  UNL1       -0.0011
      6 C         138.5061  139.2655  166.0566 C.ar    1  UNL1        0.0366
      7 O         138.5299  138.5041  163.5726 O.3     1  UNL1       -0.4671
      8 C         138.2363  139.5419  162.5302 C.3     1  UNL1        0.2752
      9 C         138.2046  140.9938  162.9054 C.2     1  UNL1        0.2343
     10 O         136.9051  141.7430  162.8946 O.2     1  UNL1       -0.2858
     11 C         142.0076  143.1022  164.0637 C.ar    1  UNL1       -0.0030
     12 C         140.7951  143.2069  164.9405 C.ar    1  UNL1       -0.0011
     13 C         139.5274  142.5041  164.5544 C.ar    1  UNL1        0.0219
     14 C         139.4722  141.6966  163.2915 C.ar    1  UNL1        0.1196
     15 N         140.6847  141.5920  162.4147 N.ar    1  UNL1       -0.2412
     16 C         141.9524  142.2948  162.8008 C.ar    1  UNL1        0.0946
     17 C         143.5675  145.1744  163.9117 C.3     1  UNL1        0.0051
     18 C         143.2753  143.8050  164.4497 C.3     1  UNL1        0.0279
     19 C         141.4820  140.0233  168.5704 C.3     1  UNL1        0.0468
     20 C         141.1536  141.3062  169.2747 C.3     1  UNL1        0.1369
     21 S         139.9031  141.5895  170.0532 S.3     1  UNL1       -0.0482
     22 C         139.9946  142.9895  170.5839 C.2     1  UNL1        0.2792
     23 O         138.9606  143.6853  171.4186 O.2     1  UNL1       -0.2625
     24 N         141.3017  143.5715  170.1334 N.am    1  UNL1       -0.2460
     25 C         142.0179  142.5312  169.3243 C.2     1  UNL1        0.2392
     26 O         143.3625  142.6883  168.6781 O.2     1  UNL1       -0.2737
     27 H         141.6315  144.4773  170.3336 H       1  UNL1        0.1583
@<TRIPOS>BOND
     1    17    18    1
     2    18    11    1
     3    11    12   ar
     4    12    13   ar
     5    13    14   ar
     6    14     9    1
     7     9    10    2
     8     9     8    1
     9     8     7    1
    10     7     1    1
    11     1     2   ar
    12     2     3   ar
    13     3     4   ar
    14     4    19    1
    15    19    20    1
    16    20    21    1
    17    21    22    1
    18    22    23    2
    19    22    24   am
    20    24    25   am
    21    25    26    2
    22     4     5   ar
    23     5     6   ar
    24    14    15   ar
    25    15    16   ar
    26    16    11   ar
    27     6     1   ar
    28    25    20    1
    29    24    27    1
@<TRIPOS>MOLECULE
*****
 27 29 0 0 0
SMALL
GASTEIGER

@<TRIPOS>ATOM
      1 C         144.4966  141.0346  164.5656 C.ar    1  UNL1        0.1392
      2 C         144.0642  139.6026  164.6770 C.ar    1  UNL1        0.0366
      3 C         142.9615  139.2234  165.6206 C.ar    1  UNL1       -0.0011
      4 C         142.2913  140.2761  166.4528 C.ar    1  UNL1       -0.0206
      5 C         142.7238  141.7082  166.3413 C.ar    1  UNL1       -0.0011
      6 C         143.8264  142.0873  165.3977 C.ar    1  UNL1        0.0366
      7 O         145.5993  141.4138  163.6220 O.3     1  UNL1       -0.4671
      8 C         145.2874  142.1919  162.3780 C.3     1  UNL1        0.2752
      9 C         144.0543  141.8755  161.5849 C.2     1  UNL1        0.2343
     10 O         144.0919  140.8048  160.5351 O.2     1  UNL1       -0.2858
     11 C         140.2417  144.1386  162.3549 C.ar    1  UNL1       -0.0030
     12 C         140.3629  142.7060  162.7824 C.ar    1  UNL1       -0.0011
     13 C         141.6337  141.9516  162.5258 C.ar    1  UNL1        0.0219
     14 C         142.7834  142.6299  161.8416 C.ar    1  UNL1        0.1196
     15 N         142.6622  144.0625  161.4141 N.ar    1  UNL1       -0.2412
     16 C         141.3913  144.8169  161.6707 C.ar    1  UNL1        0.0946
     17 C         137.8248  144.2177  163.3048 C.3     1  UNL1        0.0051
     18 C         138.9708  144.8929  162.6116 C.3     1  UNL1        0.0279
     19 C         141.1886  139.8970  167.3963 C.3     1  UNL1        0.0468
     20 C         141.3042  140.2251  168.8554 C.3     1  UNL1        0.1369
     21 S         140.5531  141.3032  169.5788 S.3     1  UNL1       -0.0482
     22 C         140.9758  141.2771  171.0178 C.2     1  UNL1        0.2792
     23 O         140.4742  142.1858  172.1007 O.2     1  UNL1       -0.2625
     24 N         141.9883  140.1828  171.1837 N.am    1  UNL1       -0.2460
     25 C         142.1912  139.5326  169.8473 C.2     1  UNL1        0.2392
     26 O         143.1184  138.3905  169.5542 O.2     1  UNL1       -0.2737
     27 H         142.4402  139.9349  172.0225 H       1  UNL1        0.1583
@<TRIPOS>BOND
     1    17    18    1
     2    18    11    1
     3    11    12   ar
     4    12    13   ar
     5    13    14   ar
     6    14     9    1
     7     9    10    2
     8     9     8    1
     9     8     7    1
    10     7     1    1
    11     1     2   ar
    12     2     3   ar
    13     3     4   ar
    14     4    19    1
    15    19    20    1
    16    20    21    1
    17    21    22    1
    18    22    23    2
    19    22    24   am
    20    24    25   am
    21    25    26    2
    22     4     5   ar
    23     5     6   ar
    24    14    15   ar
    25    15    16   ar
    26    16    11   ar
    27     6     1   ar
    28    25    20    1
    29    24    27    1
