@<TRIPOS>MOLECULE
*****
 32 36 0 0 0
SMALL
GASTEIGER

@<TRIPOS>ATOM
      1 N         138.5432  138.1097  163.9435 N.pl3   1  UNL1       -0.3183
      2 H         138.0985  137.2698  164.2005 H       1  UNL1        0.1482
      3 C         138.5923  138.5218  162.5021 C.3     1  UNL1        0.0705
      4 C         137.7116  139.5441  161.8469 C.3     1  UNL1        0.0210
      5 C         138.1057  139.6381  160.4026 C.3     1  UNL1        0.0190
      6 C         137.8050  140.3280  159.1051 C.3     1  UNL1        0.0721
      7 N         138.7434  139.7902  158.0657 N.3     1  UNL1       -0.2727
      8 C         139.6242  138.7679  158.7210 C.3     1  UNL1        0.0721
      9 C         139.2300  138.6739  160.1653 C.3     1  UNL1        0.0190
     10 C         139.5307  137.9840  161.4628 C.3     1  UNL1        0.0210
     11 C         138.7926  140.2023  156.6244 C.3     1  UNL1        0.0722
     12 C         138.0713  141.4373  156.1724 C.3     1  UNL1        0.0210
     13 C         136.6775  141.3348  155.6275 C.3     1  UNL1        0.0335
     14 C         135.9561  142.5700  155.1755 C.3     1  UNL1        0.1422
     15 O         136.6285  143.9075  155.2684 O.3     1  UNL1       -0.3538
     16 C         138.0224  144.0101  155.8133 C.3     1  UNL1        0.1422
     17 C         138.7437  142.7750  156.2653 C.3     1  UNL1        0.0335
     18 C         140.4285  140.7125  167.0933 C.ar    1  UNL1        0.1053
     19 C         139.2616  139.8375  167.4433 C.ar    1  UNL1        0.0239
     20 C         138.6331  138.9699  166.3935 C.ar    1  UNL1        0.0375
     21 C         139.1716  138.9773  164.9934 C.ar    1  UNL1        0.1502
     22 N         140.3385  139.8523  164.6434 N.ar    1  UNL1       -0.1331
     23 N         140.9671  140.7200  165.6933 N.ar    1  UNL1       -0.1467
     24 F         140.1817  144.7988  170.2935 F       1  UNL1       -0.2041
     25 C         140.9336  143.6232  169.7433 C.ar    1  UNL1        0.1426
     26 C         142.3139  143.3152  170.2431 C.ar    1  UNL1        0.0616
     27 C         143.0658  142.1396  169.6929 C.ar    1  UNL1        0.1697
     28 F         144.4461  141.8316  170.1927 F       1  UNL1       -0.2017
     29 C         142.4373  141.2721  168.6430 C.ar    1  UNL1        0.1690
     30 F         143.1892  140.0965  168.0928 F       1  UNL1       -0.2017
     31 C         141.0570  141.5801  168.1432 C.ar    1  UNL1        0.0513
     32 C         140.3051  142.7557  168.6933 C.ar    1  UNL1        0.0336
@<TRIPOS>BOND
     1    24    25    1
     2    25    26   ar
     3    26    27   ar
     4    27    28    1
     5    27    29   ar
     6    29    30    1
     7    29    31   ar
     8    31    18    1
     9    18    19   ar
    10    19    20   ar
    11    20    21   ar
    12    21     1    1
    13     3     1    1
    14     3     4    1
    15     5     4    1
    16     5     6    1
    17     6     7    1
    18     7    11    1
    19    11    12    1
    20    12    13    1
    21    13    14    1
    22    14    15    1
    23    15    16    1
    24    16    17    1
    25     7     8    1
    26     9     8    1
    27     9    10    1
    28    21    22   ar
    29    22    23   ar
    30    31    32   ar
    31    32    25   ar
    32    23    18   ar
    33    10     3    1
    34     9     5    1
    35    17    12    1
    36     1     2    1
@<TRIPOS>MOLECULE
*****
 32 36 0 0 0
SMALL
GASTEIGER

@<TRIPOS>ATOM
      1 N         138.5459  138.1269  163.8845 N.pl3   1  UNL1       -0.3183
      2 H         138.1108  137.2792  164.1322 H       1  UNL1        0.1482
      3 C         138.5812  138.5604  162.4489 C.3     1  UNL1        0.0705
      4 C         137.7332  139.6320  161.8305 C.3     1  UNL1        0.0210
      5 C         138.0986  139.7323  160.3791 C.3     1  UNL1        0.0190
      6 C         137.8003  140.4566  159.0999 C.3     1  UNL1        0.0721
      7 N         138.6897  139.8946  158.0307 N.3     1  UNL1       -0.2727
      8 C         139.5378  138.8229  158.6493 C.3     1  UNL1        0.0721
      9 C         139.1724  138.7227  160.1006 C.3     1  UNL1        0.0190
     10 C         139.4707  137.9984  161.3798 C.3     1  UNL1        0.0210
     11 C         138.7250  140.3281  156.5953 C.3     1  UNL1        0.0722
     12 C         137.4749  140.2835  155.7674 C.3     1  UNL1        0.0210
     13 C         136.4021  141.3114  155.9731 C.3     1  UNL1        0.0335
     14 C         135.1519  141.2669  155.1452 C.3     1  UNL1        0.1422
     15 O         134.9747  140.1945  154.1117 O.3     1  UNL1       -0.3538
     16 C         136.0476  139.1665  153.9059 C.3     1  UNL1        0.1422
     17 C         137.2977  139.2110  154.7337 C.3     1  UNL1        0.0335
     18 C         140.4295  140.7008  167.0590 C.ar    1  UNL1        0.1053
     19 C         139.2521  139.8349  167.3965 C.ar    1  UNL1        0.0239
     20 C         138.6242  138.9769  166.3384 C.ar    1  UNL1        0.0375
     21 C         139.1738  138.9848  164.9427 C.ar    1  UNL1        0.1502
     22 N         140.3512  139.8507  164.6052 N.ar    1  UNL1       -0.1331
     23 N         140.9791  140.7087  165.6633 N.ar    1  UNL1       -0.1467
     24 F         140.2184  144.8116  170.2302 F       1  UNL1       -0.2041
     25 C         140.9518  143.6141  169.7028 C.ar    1  UNL1        0.1426
     26 C         142.3130  143.2746  170.2336 C.ar    1  UNL1        0.0616
     27 C         143.0464  142.0771  169.7061 C.ar    1  UNL1        0.1697
     28 F         144.4076  141.7375  170.2369 F       1  UNL1       -0.2017
     29 C         142.4185  141.2192  168.6480 C.ar    1  UNL1        0.1690
     30 F         143.1519  140.0217  168.1206 F       1  UNL1       -0.2017
     31 C         141.0573  141.5587  168.1172 C.ar    1  UNL1        0.0513
     32 C         140.3239  142.7562  168.6446 C.ar    1  UNL1        0.0336
@<TRIPOS>BOND
     1    24    25    1
     2    25    26   ar
     3    26    27   ar
     4    27    28    1
     5    27    29   ar
     6    29    30    1
     7    29    31   ar
     8    31    18    1
     9    18    19   ar
    10    19    20   ar
    11    20    21   ar
    12    21     1    1
    13     3     1    1
    14     3     4    1
    15     5     4    1
    16     5     6    1
    17     6     7    1
    18     7    11    1
    19    11    12    1
    20    12    13    1
    21    13    14    1
    22    14    15    1
    23    15    16    1
    24    16    17    1
    25     7     8    1
    26     9     8    1
    27     9    10    1
    28    21    22   ar
    29    22    23   ar
    30    31    32   ar
    31    32    25   ar
    32    23    18   ar
    33    10     3    1
    34     9     5    1
    35    17    12    1
    36     1     2    1
@<TRIPOS>MOLECULE
*****
 32 36 0 0 0
SMALL
GASTEIGER

@<TRIPOS>ATOM
      1 N         138.6258  138.9825  163.1931 N.pl3   1  UNL1       -0.3183
      2 H         137.6935  138.6679  163.2255 H       1  UNL1        0.1482
      3 C         139.4532  138.7512  161.9635 C.3     1  UNL1        0.0705
      4 C         138.9755  138.8609  160.5459 C.3     1  UNL1        0.0210
      5 C         140.1306  138.5470  159.6420 C.3     1  UNL1        0.0190
      6 C         140.5494  138.4208  158.2071 C.3     1  UNL1        0.0721
      7 N         141.9998  138.0391  158.1793 N.3     1  UNL1       -0.2727
      8 C         142.4774  137.9295  159.5971 C.3     1  UNL1        0.0721
      9 C         141.3223  138.2434  160.5010 C.3     1  UNL1        0.0190
     10 C         140.9036  138.3696  161.9358 C.3     1  UNL1        0.0210
     11 C         142.8271  137.8078  156.9498 C.3     1  UNL1        0.0722
     12 C         142.8698  136.4473  156.3195 C.3     1  UNL1        0.0210
     13 C         143.1971  135.2443  157.1535 C.3     1  UNL1        0.0335
     14 C         143.2397  133.8838  156.5232 C.3     1  UNL1        0.1422
     15 O         142.9551  133.7263  155.0590 O.3     1  UNL1       -0.3538
     16 C         142.6278  134.9294  154.2249 C.3     1  UNL1        0.1422
     17 C         142.5851  136.2898  154.8552 C.3     1  UNL1        0.0335
     18 C         140.4050  141.1149  166.7340 C.ar    1  UNL1        0.1053
     19 C         139.5432  139.9051  166.9425 C.ar    1  UNL1        0.0239
     20 C         138.9501  139.1942  165.7623 C.ar    1  UNL1        0.0375
     21 C         139.2188  139.6933  164.3734 C.ar    1  UNL1        0.1502
     22 N         140.0806  140.9032  164.1649 N.ar    1  UNL1       -0.1331
     23 N         140.6738  141.6140  165.3452 N.ar    1  UNL1       -0.1467
     24 F         140.1729  144.8915  170.2953 F       1  UNL1       -0.2041
     25 C         140.8821  143.7140  169.6950 C.ar    1  UNL1        0.1426
     26 C         142.1843  143.2471  170.2749 C.ar    1  UNL1        0.0616
     27 C         142.8934  142.0695  169.6745 C.ar    1  UNL1        0.1697
     28 F         144.1956  141.6027  170.2544 F       1  UNL1       -0.2017
     29 C         142.3003  141.3589  168.4942 C.ar    1  UNL1        0.1690
     30 F         143.0094  140.1813  167.8938 F       1  UNL1       -0.2017
     31 C         140.9980  141.8257  167.9143 C.ar    1  UNL1        0.0513
     32 C         140.2889  143.0032  168.5146 C.ar    1  UNL1        0.0336
@<TRIPOS>BOND
     1    24    25    1
     2    25    26   ar
     3    26    27   ar
     4    27    28    1
     5    27    29   ar
     6    29    30    1
     7    29    31   ar
     8    31    18    1
     9    18    19   ar
    10    19    20   ar
    11    20    21   ar
    12    21     1    1
    13     3     1    1
    14     3     4    1
    15     5     4    1
    16     5     6    1
    17     6     7    1
    18     7    11    1
    19    11    12    1
    20    12    13    1
    21    13    14    1
    22    14    15    1
    23    15    16    1
    24    16    17    1
    25     7     8    1
    26     9     8    1
    27     9    10    1
    28    21    22   ar
    29    22    23   ar
    30    31    32   ar
    31    32    25   ar
    32    23    18   ar
    33    10     3    1
    34     9     5    1
    35    17    12    1
    36     1     2    1
@<TRIPOS>MOLECULE
*****
 32 36 0 0 0
SMALL
GASTEIGER

@<TRIPOS>ATOM
      1 N         144.6929  139.6244  161.8002 N.pl3   1  UNL1       -0.3183
      2 H         145.6756  139.6291  161.8595 H       1  UNL1        0.1482
      3 C         143.8720  140.2186  162.9061 C.3     1  UNL1        0.0705
      4 C         144.3396  140.4840  164.3065 C.3     1  UNL1        0.0210
      5 C         143.1959  141.0811  165.0716 C.3     1  UNL1        0.0190
      6 C         142.7781  141.6142  166.4100 C.3     1  UNL1        0.0721
      7 N         141.3455  142.0474  166.3098 N.3     1  UNL1       -0.2727
      8 C         140.8779  141.7819  164.9094 C.3     1  UNL1        0.0721
      9 C         142.0215  141.1848  164.1442 C.3     1  UNL1        0.0190
     10 C         142.4394  140.6517  162.8058 C.3     1  UNL1        0.0210
     11 C         140.5246  142.6415  167.4156 C.3     1  UNL1        0.0722
     12 C         140.5895  142.0566  168.7953 C.3     1  UNL1        0.0210
     13 C         141.4583  142.6927  169.8396 C.3     1  UNL1        0.0335
     14 C         141.5232  142.1078  171.2194 C.3     1  UNL1        0.1422
     15 O         140.7192  140.8868  171.5549 O.3     1  UNL1       -0.3538
     16 C         139.8503  140.2506  170.5107 C.3     1  UNL1        0.1422
     17 C         139.7854  140.8355  169.1309 C.3     1  UNL1        0.0335
     18 C         142.6638  137.8206  158.2114 C.ar    1  UNL1        0.1053
     19 C         142.6275  137.1078  159.5307 C.ar    1  UNL1        0.0239
     20 C         143.3038  137.7090  160.7269 C.ar    1  UNL1        0.0375
     21 C         144.0165  139.0231  160.6040 C.ar    1  UNL1        0.1502
     22 N         144.0528  139.7360  159.2847 N.ar    1  UNL1       -0.1331
     23 N         143.3765  139.1347  158.0884 N.ar    1  UNL1       -0.1467
     24 F         138.3683  137.0221  155.3987 F       1  UNL1       -0.2041
     25 C         139.8397  136.8200  155.6088 C.ar    1  UNL1        0.1426
     26 C         140.6348  136.0167  154.6226 C.ar    1  UNL1        0.0616
     27 C         142.1062  135.8147  154.8328 C.ar    1  UNL1        0.1697
     28 F         142.9012  135.0113  153.8466 F       1  UNL1       -0.2017
     29 C         142.7825  136.4160  156.0290 C.ar    1  UNL1        0.1690
     30 F         144.2539  136.2139  156.2391 F       1  UNL1       -0.2017
     31 C         141.9874  137.2193  157.0152 C.ar    1  UNL1        0.0513
     32 C         140.5160  137.4214  156.8051 C.ar    1  UNL1        0.0336
@<TRIPOS>BOND
     1    24    25    1
     2    25    26   ar
     3    26    27   ar
     4    27    28    1
     5    27    29   ar
     6    29    30    1
     7    29    31   ar
     8    31    18    1
     9    18    19   ar
    10    19    20   ar
    11    20    21   ar
    12    21     1    1
    13     3     1    1
    14     3     4    1
    15     5     4    1
    16     5     6    1
    17     6     7    1
    18     7    11    1
    19    11    12    1
    20    12    13    1
    21    13    14    1
    22    14    15    1
    23    15    16    1
    24    16    17    1
    25     7     8    1
    26     9     8    1
    27     9    10    1
    28    21    22   ar
    29    22    23   ar
    30    31    32   ar
    31    32    25   ar
    32    23    18   ar
    33    10     3    1
    34     9     5    1
    35    17    12    1
    36     1     2    1
@<TRIPOS>MOLECULE
*****
 32 36 0 0 0
SMALL
GASTEIGER

@<TRIPOS>ATOM
      1 N         138.4801  138.1565  163.9305 N.pl3   1  UNL1       -0.3183
      2 H         137.9968  137.3394  164.1911 H       1  UNL1        0.1482
      3 C         138.5799  138.5396  162.4837 C.3     1  UNL1        0.0705
      4 C         139.5419  137.9681  161.4846 C.3     1  UNL1        0.0210
      5 C         139.2918  138.6368  160.1654 C.3     1  UNL1        0.0190
      6 C         139.7317  138.6969  158.7327 C.3     1  UNL1        0.0721
      7 N         138.8872  139.7188  158.0308 N.3     1  UNL1       -0.2727
      8 C         137.9253  140.2903  159.0299 C.3     1  UNL1        0.0721
      9 C         138.1753  139.6216  160.3491 C.3     1  UNL1        0.0190
     10 C         137.7354  139.5616  161.7819 C.3     1  UNL1        0.0210
     11 C         138.9871  140.1019  156.5841 C.3     1  UNL1        0.0722
     12 C         139.5316  139.1243  155.5852 C.3     1  UNL1        0.0210
     13 C         138.6640  138.0126  155.0741 C.3     1  UNL1        0.0335
     14 C         139.2085  137.0349  154.0751 C.3     1  UNL1        0.1422
     15 O         140.6205  137.1691  153.5873 O.3     1  UNL1       -0.3538
     16 C         141.4882  138.2809  154.0984 C.3     1  UNL1        0.1422
     17 C         140.9437  139.2585  155.0973 C.3     1  UNL1        0.0335
     18 C         140.3898  140.7423  167.0796 C.ar    1  UNL1        0.1053
     19 C         139.2685  139.8165  167.4480 C.ar    1  UNL1        0.0239
     20 C         138.6320  138.9546  166.3983 C.ar    1  UNL1        0.0375
     21 C         139.1166  139.0184  164.9802 C.ar    1  UNL1        0.1502
     22 N         140.2379  139.9442  164.6118 N.ar    1  UNL1       -0.1331
     23 N         140.8745  140.8062  165.6615 N.ar    1  UNL1       -0.1467
     24 F         140.2056  144.8659  170.2359 F       1  UNL1       -0.2041
     25 C         140.9343  143.6659  169.7075 C.ar    1  UNL1        0.1426
     26 C         142.2995  143.3279  170.2289 C.ar    1  UNL1        0.0616
     27 C         143.0282  142.1279  169.7005 C.ar    1  UNL1        0.1697
     28 F         144.3934  141.7898  170.2218 F       1  UNL1       -0.2017
     29 C         142.3916  141.2661  168.6507 C.ar    1  UNL1        0.1690
     30 F         143.1203  140.0661  168.1224 F       1  UNL1       -0.2017
     31 C         141.0263  141.6041  168.1294 C.ar    1  UNL1        0.0513
     32 C         140.2976  142.8041  168.6577 C.ar    1  UNL1        0.0336
@<TRIPOS>BOND
     1    24    25    1
     2    25    26   ar
     3    26    27   ar
     4    27    28    1
     5    27    29   ar
     6    29    30    1
     7    29    31   ar
     8    31    18    1
     9    18    19   ar
    10    19    20   ar
    11    20    21   ar
    12    21     1    1
    13     3     1    1
    14     3     4    1
    15     5     4    1
    16     5     6    1
    17     6     7    1
    18     7    11    1
    19    11    12    1
    20    12    13    1
    21    13    14    1
    22    14    15    1
    23    15    16    1
    24    16    17    1
    25     7     8    1
    26     9     8    1
    27     9    10    1
    28    21    22   ar
    29    22    23   ar
    30    31    32   ar
    31    32    25   ar
    32    23    18   ar
    33    10     3    1
    34     9     5    1
    35    17    12    1
    36     1     2    1
@<TRIPOS>MOLECULE
*****
 32 36 0 0 0
SMALL
GASTEIGER

@<TRIPOS>ATOM
      1 N         144.7094  139.9207  161.7982 N.pl3   1  UNL1       -0.3183
      2 H         145.6897  140.0039  161.8339 H       1  UNL1        0.1482
      3 C         143.8684  140.4786  162.9079 C.3     1  UNL1        0.0705
      4 C         144.2847  140.6246  164.3416 C.3     1  UNL1        0.0210
      5 C         143.1370  141.2246  165.0986 C.3     1  UNL1        0.0190
      6 C         142.6850  141.6857  166.4525 C.3     1  UNL1        0.0721
      7 N         141.2801  142.1954  166.3235 N.3     1  UNL1       -0.2727
      8 C         140.8639  142.0493  164.8897 C.3     1  UNL1        0.0721
      9 C         142.0116  141.4494  164.1328 C.3     1  UNL1        0.0190
     10 C         142.4636  140.9883  162.7788 C.3     1  UNL1        0.0210
     11 C         140.4392  142.7532  167.4332 C.3     1  UNL1        0.0722
     12 C         140.4412  142.0933  168.7802 C.3     1  UNL1        0.0210
     13 C         139.7233  140.7912  168.9784 C.3     1  UNL1        0.0335
     14 C         139.7253  140.1312  170.3255 C.3     1  UNL1        0.1422
     15 O         140.4451  140.7732  171.4742 O.3     1  UNL1       -0.3538
     16 C         141.1630  142.0753  171.2760 C.3     1  UNL1        0.1422
     17 C         141.1610  142.7353  169.9290 C.3     1  UNL1        0.0335
     18 C         142.7513  137.8671  158.3055 C.ar    1  UNL1        0.1053
     19 C         142.6823  137.2523  159.6720 C.ar    1  UNL1        0.0239
     20 C         143.3350  137.9368  160.8362 C.ar    1  UNL1        0.0375
     21 C         144.0567  139.2362  160.6340 C.ar    1  UNL1        0.1502
     22 N         144.1257  139.8509  159.2675 N.ar    1  UNL1       -0.1331
     23 N         143.4731  139.1664  158.1032 N.ar    1  UNL1       -0.1467
     24 F         143.0707  134.7447  154.1644 F       1  UNL1       -0.2041
     25 C         142.2583  135.6213  155.0707 C.ar    1  UNL1        0.1426
     26 C         140.7932  135.8134  154.8129 C.ar    1  UNL1        0.0616
     27 C         139.9808  136.6901  155.7193 C.ar    1  UNL1        0.1697
     28 F         138.5157  136.8821  155.4614 F       1  UNL1       -0.2017
     29 C         140.6335  137.3746  156.8834 C.ar    1  UNL1        0.1690
     30 F         139.8211  138.2512  157.7898 F       1  UNL1       -0.2017
     31 C         142.0987  137.1825  157.1413 C.ar    1  UNL1        0.0513
     32 C         142.9111  136.3059  156.2349 C.ar    1  UNL1        0.0336
@<TRIPOS>BOND
     1    24    25    1
     2    25    26   ar
     3    26    27   ar
     4    27    28    1
     5    27    29   ar
     6    29    30    1
     7    29    31   ar
     8    31    18    1
     9    18    19   ar
    10    19    20   ar
    11    20    21   ar
    12    21     1    1
    13     3     1    1
    14     3     4    1
    15     5     4    1
    16     5     6    1
    17     6     7    1
    18     7    11    1
    19    11    12    1
    20    12    13    1
    21    13    14    1
    22    14    15    1
    23    15    16    1
    24    16    17    1
    25     7     8    1
    26     9     8    1
    27     9    10    1
    28    21    22   ar
    29    22    23   ar
    30    31    32   ar
    31    32    25   ar
    32    23    18   ar
    33    10     3    1
    34     9     5    1
    35    17    12    1
    36     1     2    1
@<TRIPOS>MOLECULE
*****
 32 36 0 0 0
SMALL
GASTEIGER

@<TRIPOS>ATOM
      1 N         138.6546  140.6763  161.3350 N.pl3   1  UNL1       -0.3183
      2 H         137.8376  141.1013  160.9871 H       1  UNL1        0.1482
      3 C         139.5232  139.8620  160.4225 C.3     1  UNL1        0.0705
      4 C         140.9019  139.3598  160.7337 C.3     1  UNL1        0.0210
      5 C         141.3963  138.5944  159.5422 C.3     1  UNL1        0.0190
      6 C         142.5540  137.8110  158.9981 C.3     1  UNL1        0.0721
      7 N         142.1964  137.3559  157.6143 N.3     1  UNL1       -0.2727
      8 C         140.8175  137.8582  157.3031 C.3     1  UNL1        0.0721
      9 C         140.3231  138.6236  158.4946 C.3     1  UNL1        0.0190
     10 C         139.1655  139.4070  159.0387 C.3     1  UNL1        0.0210
     11 C         143.0649  136.5417  156.7019 C.3     1  UNL1        0.0722
     12 C         142.7960  135.0773  156.5198 C.3     1  UNL1        0.0210
     13 C         141.7343  134.6230  155.5626 C.3     1  UNL1        0.0335
     14 C         141.4655  133.1585  155.3805 C.3     1  UNL1        0.1422
     15 O         142.2583  132.1484  156.1557 O.3     1  UNL1       -0.3538
     16 C         143.3201  132.6026  157.1130 C.3     1  UNL1        0.1422
     17 C         143.5889  134.0671  157.2950 C.3     1  UNL1        0.0335
     18 C         139.7835  141.1763  165.6623 C.ar    1  UNL1        0.1053
     19 C         138.6349  140.2886  165.2846 C.ar    1  UNL1        0.0239
     20 C         138.2585  140.1219  163.8422 C.ar    1  UNL1        0.0375
     21 C         139.0309  140.8429  162.7774 C.ar    1  UNL1        0.1502
     22 N         140.1795  141.7306  163.1551 N.ar    1  UNL1       -0.1331
     23 N         140.5559  141.8973  164.5976 N.ar    1  UNL1       -0.1467
     24 F         141.2488  139.1086  170.1986 F       1  UNL1       -0.2041
     25 C         140.8924  140.3092  169.3729 C.ar    1  UNL1        0.1426
     26 C         140.9123  141.6764  169.9897 C.ar    1  UNL1        0.0616
     27 C         140.5559  142.8769  169.1639 C.ar    1  UNL1        0.1697
     28 F         140.5759  144.2441  169.7806 F       1  UNL1       -0.2017
     29 C         140.1797  142.7101  167.7215 C.ar    1  UNL1        0.1690
     30 F         139.8233  143.9107  166.8958 F       1  UNL1       -0.2017
     31 C         140.1598  141.3429  167.1047 C.ar    1  UNL1        0.0513
     32 C         140.5161  140.1424  167.9304 C.ar    1  UNL1        0.0336
@<TRIPOS>BOND
     1    24    25    1
     2    25    26   ar
     3    26    27   ar
     4    27    28    1
     5    27    29   ar
     6    29    30    1
     7    29    31   ar
     8    31    18    1
     9    18    19   ar
    10    19    20   ar
    11    20    21   ar
    12    21     1    1
    13     3     1    1
    14     3     4    1
    15     5     4    1
    16     5     6    1
    17     6     7    1
    18     7    11    1
    19    11    12    1
    20    12    13    1
    21    13    14    1
    22    14    15    1
    23    15    16    1
    24    16    17    1
    25     7     8    1
    26     9     8    1
    27     9    10    1
    28    21    22   ar
    29    22    23   ar
    30    31    32   ar
    31    32    25   ar
    32    23    18   ar
    33    10     3    1
    34     9     5    1
    35    17    12    1
    36     1     2    1
@<TRIPOS>MOLECULE
*****
 32 36 0 0 0
SMALL
GASTEIGER

@<TRIPOS>ATOM
      1 N         145.0476  139.8622  163.3006 N.pl3   1  UNL1       -0.3183
      2 H         146.0263  139.9686  163.3162 H       1  UNL1        0.1482
      3 C         144.3551  139.4795  162.0263 C.3     1  UNL1        0.0705
      4 C         143.8311  138.1167  161.6825 C.3     1  UNL1        0.0210
      5 C         143.2171  138.1875  160.3157 C.3     1  UNL1        0.0190
      6 C         142.5137  137.3889  159.2585 C.3     1  UNL1        0.0721
      7 N         142.2236  138.3019  158.1042 N.3     1  UNL1       -0.2727
      8 C         142.7477  139.6647  158.4481 C.3     1  UNL1        0.0721
      9 C         143.3616  139.5940  159.8148 C.3     1  UNL1        0.0190
     10 C         144.0650  140.3925  160.8720 C.3     1  UNL1        0.0210
     11 C         141.5311  137.9193  156.8299 C.3     1  UNL1        0.0722
     12 C         141.9867  136.7146  156.0612 C.3     1  UNL1        0.0210
     13 C         143.4222  136.2837  156.1238 C.3     1  UNL1        0.0335
     14 C         143.8779  135.0789  155.3550 C.3     1  UNL1        0.1422
     15 O         142.8982  134.3051  154.5237 O.3     1  UNL1       -0.3538
     16 C         141.4627  134.7359  154.4610 C.3     1  UNL1        0.1422
     17 C         141.0070  135.9406  155.2297 C.3     1  UNL1        0.0335
     18 C         142.6523  140.5240  167.0522 C.ar    1  UNL1        0.1053
     19 C         143.0177  139.1314  166.6316 C.ar    1  UNL1        0.0239
     20 C         143.8161  138.9107  165.3811 C.ar    1  UNL1        0.0375
     21 C         144.2492  140.0828  164.5511 C.ar    1  UNL1        0.1502
     22 N         143.8837  141.4754  164.9717 N.ar    1  UNL1       -0.1331
     23 N         143.0853  141.6961  166.2223 N.ar    1  UNL1       -0.1467
     24 F         138.2191  140.0007  169.7118 F       1  UNL1       -0.2041
     25 C         139.6373  140.4829  169.6325 C.ar    1  UNL1        0.1426
     26 C         140.2570  141.1858  170.8038 C.ar    1  UNL1        0.0616
     27 C         141.6752  141.6681  170.7245 C.ar    1  UNL1        0.1697
     28 F         142.2948  142.3709  171.8958 F       1  UNL1       -0.2017
     29 C         142.4735  141.4475  169.4740 C.ar    1  UNL1        0.1690
     30 F         143.8917  141.9298  169.3948 F       1  UNL1       -0.2017
     31 C         141.8538  140.7446  168.3027 C.ar    1  UNL1        0.0513
     32 C         140.4357  140.2623  168.3819 C.ar    1  UNL1        0.0336
@<TRIPOS>BOND
     1    24    25    1
     2    25    26   ar
     3    26    27   ar
     4    27    28    1
     5    27    29   ar
     6    29    30    1
     7    29    31   ar
     8    31    18    1
     9    18    19   ar
    10    19    20   ar
    11    20    21   ar
    12    21     1    1
    13     3     1    1
    14     3     4    1
    15     5     4    1
    16     5     6    1
    17     6     7    1
    18     7    11    1
    19    11    12    1
    20    12    13    1
    21    13    14    1
    22    14    15    1
    23    15    16    1
    24    16    17    1
    25     7     8    1
    26     9     8    1
    27     9    10    1
    28    21    22   ar
    29    22    23   ar
    30    31    32   ar
    31    32    25   ar
    32    23    18   ar
    33    10     3    1
    34     9     5    1
    35    17    12    1
    36     1     2    1
@<TRIPOS>MOLECULE
*****
 32 36 0 0 0
SMALL
GASTEIGER

@<TRIPOS>ATOM
      1 N         137.6321  139.5438  162.1875 N.pl3   1  UNL1       -0.3183
      2 H         136.8487  138.9477  162.1990 H       1  UNL1        0.1482
      3 C         138.5915  139.5437  163.3406 C.3     1  UNL1        0.0705
      4 C         138.3579  140.1731  164.6820 C.3     1  UNL1        0.0210
      5 C         139.5750  139.9325  165.5251 C.3     1  UNL1        0.0190
      6 C         140.1828  140.1728  166.8752 C.3     1  UNL1        0.0721
      7 N         141.5442  139.5432  166.8894 N.3     1  UNL1       -0.2727
      8 C         141.7778  138.9139  165.5480 C.3     1  UNL1        0.0721
      9 C         140.5608  139.1544  164.7048 C.3     1  UNL1        0.0190
     10 C         139.9529  138.9141  163.3547 C.3     1  UNL1        0.0210
     11 C         142.5036  139.5431  168.0424 C.3     1  UNL1        0.0722
     12 C         142.2785  140.4632  169.2055 C.3     1  UNL1        0.0210
     13 C         141.2914  140.0948  170.2731 C.3     1  UNL1        0.0335
     14 C         141.0663  141.0149  171.4363 C.3     1  UNL1        0.1422
     15 O         141.8283  142.3033  171.5317 O.3     1  UNL1       -0.3538
     16 C         142.8155  142.6718  170.4641 C.3     1  UNL1        0.1422
     17 C         143.0405  141.7517  169.3010 C.3     1  UNL1        0.0335
     18 C         138.3350  142.2690  158.6761 C.ar    1  UNL1        0.1053
     19 C         138.3382  140.7814  158.4835 C.ar    1  UNL1        0.0239
     20 C         138.1039  139.8730  159.6539 C.ar    1  UNL1        0.0375
     21 C         137.8664  140.4522  161.0171 C.ar    1  UNL1        0.1502
     22 N         137.8632  141.9397  161.2097 N.ar    1  UNL1       -0.1331
     23 N         138.0975  142.8482  160.0392 N.ar    1  UNL1       -0.1467
     24 F         141.1989  145.8913  156.2935 F       1  UNL1       -0.2041
     25 C         140.0012  144.9885  156.3143 C.ar    1  UNL1        0.1426
     26 C         139.0378  144.9939  155.1646 C.ar    1  UNL1        0.0616
     27 C         137.8401  144.0910  155.1854 C.ar    1  UNL1        0.1697
     28 F         136.8767  144.0965  154.0357 F       1  UNL1       -0.2017
     29 C         137.6059  143.1827  156.3559 C.ar    1  UNL1        0.1690
     30 F         136.4082  142.2799  156.3767 F       1  UNL1       -0.2017
     31 C         138.5693  143.1773  157.5057 C.ar    1  UNL1        0.0513
     32 C         139.7670  144.0801  157.4849 C.ar    1  UNL1        0.0336
@<TRIPOS>BOND
     1    24    25    1
     2    25    26   ar
     3    26    27   ar
     4    27    28    1
     5    27    29   ar
     6    29    30    1
     7    29    31   ar
     8    31    18    1
     9    18    19   ar
    10    19    20   ar
    11    20    21   ar
    12    21     1    1
    13     3     1    1
    14     3     4    1
    15     5     4    1
    16     5     6    1
    17     6     7    1
    18     7    11    1
    19    11    12    1
    20    12    13    1
    21    13    14    1
    22    14    15    1
    23    15    16    1
    24    16    17    1
    25     7     8    1
    26     9     8    1
    27     9    10    1
    28    21    22   ar
    29    22    23   ar
    30    31    32   ar
    31    32    25   ar
    32    23    18   ar
    33    10     3    1
    34     9     5    1
    35    17    12    1
    36     1     2    1
