@<TRIPOS>MOLECULE
*****
 42 47 0 0 0
SMALL
GASTEIGER

@<TRIPOS>ATOM
      1 C         142.7895  135.7892  157.7642 C.ar    1  UNL1        0.2400
      2 N         142.2239  135.3007  156.4636 N.ar    1  UNL1       -0.2090
      3 C         141.4945  136.2496  155.5595 C.ar    1  UNL1        0.1021
      4 C         141.1530  137.7500  155.6534 C.ar    1  UNL1        0.0207
      5 C         141.9177  137.2387  156.8381 C.ar    1  UNL1        0.0221
      6 C         142.6256  137.2266  158.1605 C.ar    1  UNL1        0.1178
      7 N         143.1912  137.7152  159.4611 N.pl3   1  UNL1       -0.2104
      8 S         143.5462  138.6454  160.5829 S.O2    1  UNL1        0.0759
      9 O         144.2832  138.4637  161.8768 O.2     1  UNL1       -0.1499
     10 O         144.0282  137.2416  160.8000 O.2     1  UNL1       -0.1499
     11 C         143.6480  139.9052  161.3907 C.ar    1  UNL1        0.1527
     12 C         143.4841  141.3426  161.7870 C.ar    1  UNL1        0.0293
     13 C         143.0744  142.7842  161.7241 C.ar    1  UNL1        0.0822
     14 C         143.8515  142.4249  163.0063 C.ar    1  UNL1        0.1468
     15 F         143.9532  143.6847  163.8141 F       1  UNL1       -0.2039
     16 C         144.4576  141.1529  163.5210 C.ar    1  UNL1        0.0608
     17 C         144.3559  139.8931  162.7131 C.ar    1  UNL1        0.1611
     18 F         144.9620  138.6212  163.2277 F       1  UNL1       -0.2027
     19 C         142.4683  144.0561  161.2095 C.2     1  UNL1        0.2483
     20 O         142.8234  144.9864  162.3313 O.2     1  UNL1       -0.2701
     21 N         141.7389  145.0050  160.3053 N.am    1  UNL1       -0.2968
     22 C         140.9741  145.5163  159.1206 C.3     1  UNL1        0.1166
     23 C         140.2662  145.5284  157.7981 C.ar    1  UNL1       -0.0026
     24 C         139.6601  146.8003  157.2835 C.ar    1  UNL1       -0.0026
     25 C         138.9523  146.8124  155.9611 C.ar    1  UNL1       -0.0003
     26 C         138.8505  145.5526  155.1533 C.ar    1  UNL1       -0.0000
     27 C         139.4566  144.2807  155.6679 C.ar    1  UNL1       -0.0002
     28 C         140.1645  144.2686  156.9903 C.ar    1  UNL1       -0.0026
     29 C         139.2438  142.8498  154.5679 C.ar    1  UNL1        0.0030
     30 C         138.5144  143.7987  153.6637 C.ar    1  UNL1        0.0207
     31 C         137.9488  143.3101  152.3631 C.ar    1  UNL1        0.0988
     32 N         138.1127  141.8727  151.9669 N.ar    1  UNL1       -0.2438
     33 C         138.8421  140.9239  152.8711 C.ar    1  UNL1        0.0813
     34 C         139.1151  139.2925  152.5845 C.ar    1  UNL1        0.0191
     35 C         139.8310  138.2851  153.4347 C.ar    1  UNL1        0.0016
     36 C         140.4235  138.6989  154.7492 C.ar    1  UNL1        0.0016
     37 C         139.8174  139.9708  154.2345 C.ar    1  UNL1        0.0015
     38 C         139.4077  141.4124  154.1717 C.ar    1  UNL1        0.0177
     39 H         143.5890  136.8804  159.7989 H       1  UNL1        0.1739
     40 H         141.8057  145.8318  160.8355 H       1  UNL1        0.1501
     41 C         144.0878  133.5666  158.1170 C.3     1  UNL1        0.2543
     42 O         143.5189  134.8404  158.6684 O.3     1  UNL1       -0.4553
@<TRIPOS>BOND
     1    41    42    1
     2    42     1    1
     3     1     2   ar
     4     2     3   ar
     5     3     4   ar
     6     4     5   ar
     7     5     6   ar
     8     6     7    1
     9     7     8    1
    10     8     9    2
    11     8    10    2
    12     8    11    1
    13    11    12   ar
    14    12    13   ar
    15    13    14   ar
    16    14    15    1
    17    14    16   ar
    18    16    17   ar
    19    17    18    1
    20    13    19    1
    21    19    20    2
    22    19    21   am
    23    21    22    1
    24    22    23    1
    25    23    24   ar
    26    24    25   ar
    27    25    26   ar
    28    26    27   ar
    29    27    28   ar
    30    27    29    1
    31    29    30   ar
    32    30    31   ar
    33    31    32   ar
    34    32    33   ar
    35    33    34   ar
    36    34    35   ar
    37    35    36   ar
    38    36    37   ar
    39    37    38   ar
    40     6     1   ar
    41    17    11   ar
    42    28    23   ar
    43    38    29   ar
    44    36     4    1
    45    38    33   ar
    46     7    39    1
    47    21    40    1
@<TRIPOS>MOLECULE
*****
 42 47 0 0 0
SMALL
GASTEIGER

@<TRIPOS>ATOM
      1 C         140.4643  145.5918  154.9203 C.ar    1  UNL1        0.2400
      2 N         140.0407  146.7641  155.7547 N.ar    1  UNL1       -0.2090
      3 C         139.9672  146.6348  157.2473 C.ar    1  UNL1        0.1021
      4 C         140.2492  145.4763  158.2247 C.ar    1  UNL1        0.0207
      5 C         140.4711  145.1093  156.7873 C.ar    1  UNL1        0.0221
      6 C         140.8145  144.2902  155.5786 C.ar    1  UNL1        0.1178
      7 N         141.2382  143.1178  154.7442 N.pl3   1  UNL1       -0.2104
      8 S         141.6909  141.7337  154.3849 S.O2    1  UNL1        0.0759
      9 O         141.9978  141.0568  153.0819 O.2     1  UNL1       -0.1499
     10 O         141.5068  142.6266  153.1937 O.2     1  UNL1       -0.1499
     11 C         142.1182  140.3047  154.5439 C.ar    1  UNL1        0.1527
     12 C         142.4684  139.0031  155.2022 C.ar    1  UNL1        0.0293
     13 C         142.6993  137.9860  156.2802 C.ar    1  UNL1        0.0822
     14 C         142.9727  137.4466  154.8620 C.ar    1  UNL1        0.1468
     15 F         143.3999  136.0175  155.0211 F       1  UNL1       -0.2039
     16 C         142.8889  138.0565  153.4942 C.ar    1  UNL1        0.0608
     17 C         142.4617  139.4856  153.3351 C.ar    1  UNL1        0.1611
     18 F         142.3779  140.0955  151.9673 F       1  UNL1       -0.2027
     19 C         142.7831  137.3760  157.6480 C.2     1  UNL1        0.2483
     20 O         143.2359  135.9919  157.2887 O.2     1  UNL1       -0.2701
     21 N         142.7097  137.2468  159.1406 N.am    1  UNL1       -0.2968
     22 C         142.4878  137.6139  160.5780 C.3     1  UNL1        0.1166
     23 C         142.1443  138.4329  161.7868 C.ar    1  UNL1       -0.0026
     24 C         142.2281  137.8230  163.1546 C.ar    1  UNL1       -0.0026
     25 C         141.8847  138.6421  164.3633 C.ar    1  UNL1       -0.0003
     26 C         141.4574  140.0711  164.2043 C.ar    1  UNL1       -0.0000
     27 C         141.3736  140.6811  162.8365 C.ar    1  UNL1       -0.0002
     28 C         141.7171  139.8620  161.6278 C.ar    1  UNL1       -0.0026
     29 C         140.8407  142.4185  162.8215 C.ar    1  UNL1        0.0030
     30 C         140.7672  142.2892  164.3141 C.ar    1  UNL1        0.0207
     31 C         140.3436  143.4615  165.1485 C.ar    1  UNL1        0.0988
     32 N         139.9934  144.7631  164.4901 N.ar    1  UNL1       -0.2438
     33 C         140.0668  144.8923  162.9975 C.ar    1  UNL1        0.0813
     34 C         139.7120  146.2674  162.1023 C.ar    1  UNL1        0.0191
     35 C         139.7613  146.4733  160.6173 C.ar    1  UNL1        0.0016
     36 C         140.1758  145.3471  159.7173 C.ar    1  UNL1        0.0016
     37 C         140.2596  144.7371  161.0852 C.ar    1  UNL1        0.0015
     38 C         140.4905  143.7200  162.1631 C.ar    1  UNL1        0.0177
     39 H         141.1832  143.5182  153.8465 H       1  UNL1        0.1739
     40 H         142.9901  136.3088  159.2450 H       1  UNL1        0.1501
     41 C         141.7887  146.2371  152.7803 C.3     1  UNL1        0.2543
     42 O         140.5378  145.7210  153.4277 O.3     1  UNL1       -0.4553
@<TRIPOS>BOND
     1    41    42    1
     2    42     1    1
     3     1     2   ar
     4     2     3   ar
     5     3     4   ar
     6     4     5   ar
     7     5     6   ar
     8     6     7    1
     9     7     8    1
    10     8     9    2
    11     8    10    2
    12     8    11    1
    13    11    12   ar
    14    12    13   ar
    15    13    14   ar
    16    14    15    1
    17    14    16   ar
    18    16    17   ar
    19    17    18    1
    20    13    19    1
    21    19    20    2
    22    19    21   am
    23    21    22    1
    24    22    23    1
    25    23    24   ar
    26    24    25   ar
    27    25    26   ar
    28    26    27   ar
    29    27    28   ar
    30    27    29    1
    31    29    30   ar
    32    30    31   ar
    33    31    32   ar
    34    32    33   ar
    35    33    34   ar
    36    34    35   ar
    37    35    36   ar
    38    36    37   ar
    39    37    38   ar
    40     6     1   ar
    41    17    11   ar
    42    28    23   ar
    43    38    29   ar
    44    36     4    1
    45    38    33   ar
    46     7    39    1
    47    21    40    1
@<TRIPOS>MOLECULE
*****
 42 47 0 0 0
SMALL
GASTEIGER

@<TRIPOS>ATOM
      1 C         139.9986  145.4794  156.4584 C.ar    1  UNL1        0.2400
      2 N         139.4290  145.3578  155.0762 N.ar    1  UNL1       -0.2090
      3 C         139.4370  144.0315  154.3756 C.ar    1  UNL1        0.1021
      4 C         139.9375  142.6281  154.7716 C.ar    1  UNL1        0.0207
      5 C         140.1566  143.6605  155.8375 C.ar    1  UNL1        0.0221
      6 C         140.5763  144.2745  157.1401 C.ar    1  UNL1        0.1178
      7 N         141.1460  144.3960  158.5225 N.pl3   1  UNL1       -0.2104
      8 S         141.7969  144.0103  159.8176 S.O2    1  UNL1        0.0759
      9 O         142.1542  144.7748  161.0578 O.2     1  UNL1       -0.1499
     10 O         141.4263  145.4622  159.7481 O.2     1  UNL1       -0.1499
     11 C         142.4506  143.1641  160.8695 C.ar    1  UNL1        0.1527
     12 C         143.0282  141.9593  161.5512 C.ar    1  UNL1        0.0293
     13 C         143.4601  140.5412  161.7806 C.ar    1  UNL1        0.0822
     14 C         143.7580  141.4715  162.9733 C.ar    1  UNL1        0.1468
     15 F         144.4117  140.6253  164.0252 F       1  UNL1       -0.2039
     16 C         143.5240  142.9319  163.2241 C.ar    1  UNL1        0.0608
     17 C         142.8703  143.7781  162.1722 C.ar    1  UNL1        0.1611
     18 F         142.6363  145.2383  162.4229 F       1  UNL1       -0.2027
     19 C         143.6941  139.0810  161.5299 C.2     1  UNL1        0.2483
     20 O         144.3451  138.6953  162.8250 O.2     1  UNL1       -0.2701
     21 N         143.7021  137.7546  160.8294 N.am    1  UNL1       -0.2968
     22 C         143.4830  136.7222  159.7635 C.3     1  UNL1        0.1166
     23 C         143.0633  136.1082  158.4608 C.ar    1  UNL1       -0.0026
     24 C         143.2973  134.6479  158.2101 C.ar    1  UNL1       -0.0026
     25 C         142.8777  134.0340  156.9075 C.ar    1  UNL1       -0.0003
     26 C         142.2240  134.8802  155.8556 C.ar    1  UNL1       -0.0000
     27 C         141.9899  136.3405  156.1063 C.ar    1  UNL1       -0.0002
     28 C         142.4096  136.9544  157.4089 C.ar    1  UNL1       -0.0026
     29 C         141.1890  137.2186  154.7314 C.ar    1  UNL1        0.0030
     30 C         141.1970  135.8922  154.0309 C.ar    1  UNL1        0.0207
     31 C         140.6273  135.7707  152.6486 C.ar    1  UNL1        0.0988
     32 N         140.0497  136.9756  151.9669 N.ar    1  UNL1       -0.2438
     33 C         140.0417  138.3019  152.6674 C.ar    1  UNL1        0.0813
     34 C         139.4384  139.7437  152.0548 C.ar    1  UNL1        0.0191
     35 C         139.3948  141.1018  152.6902 C.ar    1  UNL1        0.0016
     36 C         139.9455  141.3017  154.0711 C.ar    1  UNL1        0.0016
     37 C         140.1795  139.8414  153.8203 C.ar    1  UNL1        0.0015
     38 C         140.6114  138.4234  154.0497 C.ar    1  UNL1        0.0177
     39 H         140.9924  145.3544  158.6870 H       1  UNL1        0.1739
     40 H         144.1311  137.1992  161.5198 H       1  UNL1        0.1501
     41 C         138.9523  147.8310  156.8118 C.3     1  UNL1        0.2543
     42 O         139.9907  146.8056  157.1590 O.3     1  UNL1       -0.4553
@<TRIPOS>BOND
     1    41    42    1
     2    42     1    1
     3     1     2   ar
     4     2     3   ar
     5     3     4   ar
     6     4     5   ar
     7     5     6   ar
     8     6     7    1
     9     7     8    1
    10     8     9    2
    11     8    10    2
    12     8    11    1
    13    11    12   ar
    14    12    13   ar
    15    13    14   ar
    16    14    15    1
    17    14    16   ar
    18    16    17   ar
    19    17    18    1
    20    13    19    1
    21    19    20    2
    22    19    21   am
    23    21    22    1
    24    22    23    1
    25    23    24   ar
    26    24    25   ar
    27    25    26   ar
    28    26    27   ar
    29    27    28   ar
    30    27    29    1
    31    29    30   ar
    32    30    31   ar
    33    31    32   ar
    34    32    33   ar
    35    33    34   ar
    36    34    35   ar
    37    35    36   ar
    38    36    37   ar
    39    37    38   ar
    40     6     1   ar
    41    17    11   ar
    42    28    23   ar
    43    38    29   ar
    44    36     4    1
    45    38    33   ar
    46     7    39    1
    47    21    40    1
@<TRIPOS>MOLECULE
*****
 42 47 0 0 0
SMALL
GASTEIGER

@<TRIPOS>ATOM
      1 C         139.3238  146.9521  157.3217 C.ar    1  UNL1        0.2400
      2 N         139.2697  147.0395  155.8253 N.ar    1  UNL1       -0.2090
      3 C         139.6700  145.8596  154.9901 C.ar    1  UNL1        0.1021
      4 C         140.1720  144.4424  155.3315 C.ar    1  UNL1        0.0207
      5 C         139.8962  145.2836  156.5424 C.ar    1  UNL1        0.0221
      6 C         139.7783  145.6846  157.9829 C.ar    1  UNL1        0.1178
      7 N         139.8325  145.5972  159.4794 N.pl3   1  UNL1       -0.2104
      8 S         140.0522  145.0318  160.8513 S.O2    1  UNL1        0.0759
      9 O         139.8790  145.5878  162.2337 O.2     1  UNL1       -0.1499
     10 O         139.5563  146.4474  160.8645 O.2     1  UNL1       -0.1499
     11 C         140.4109  144.0566  161.9331 C.ar    1  UNL1        0.1527
     12 C         140.8654  142.7893  162.5943 C.ar    1  UNL1        0.0293
     13 C         141.3609  141.3826  162.7553 C.ar    1  UNL1        0.0822
     14 C         141.1284  142.1062  164.0967 C.ar    1  UNL1        0.1468
     15 F         141.4871  141.1310  165.1785 F       1  UNL1       -0.2039
     16 C         140.6517  143.4825  164.4555 C.ar    1  UNL1        0.0608
     17 C         140.2930  144.4577  163.3737 C.ar    1  UNL1        0.1611
     18 F         139.8163  145.8339  163.7324 F       1  UNL1       -0.2027
     19 C         141.8375  140.0064  162.3966 C.2     1  UNL1        0.2483
     20 O         142.0572  139.4409  163.7684 O.2     1  UNL1       -0.2701
     21 N         142.2379  138.8265  161.5614 N.am    1  UNL1       -0.2968
     22 C         142.5136  137.9853  160.3504 C.3     1  UNL1        0.1166
     23 C         142.6315  137.5842  158.9098 C.ar    1  UNL1       -0.0026
     24 C         143.1082  136.2079  158.5511 C.ar    1  UNL1       -0.0026
     25 C         143.2261  135.8069  157.1106 C.ar    1  UNL1       -0.0003
     26 C         142.8674  136.7821  156.0287 C.ar    1  UNL1       -0.0000
     27 C         142.3907  138.1583  156.3875 C.ar    1  UNL1       -0.0002
     28 C         142.2728  138.5594  157.8280 C.ar    1  UNL1       -0.0026
     29 C         141.9990  139.2122  154.9597 C.ar    1  UNL1        0.0030
     30 C         142.3993  138.0323  154.1245 C.ar    1  UNL1        0.0207
     31 C         142.3452  138.1198  152.6280 C.ar    1  UNL1        0.0988
     32 N         141.8907  139.3872  151.9668 N.ar    1  UNL1       -0.2438
     33 C         141.4903  140.5671  152.8020 C.ar    1  UNL1        0.0813
     34 C         140.9604  142.0536  152.2296 C.ar    1  UNL1        0.0191
     35 C         140.5448  143.2739  152.9965 C.ar    1  UNL1        0.0016
     36 C         140.5724  143.2625  154.4963 C.ar    1  UNL1        0.0016
     37 C         141.0490  141.8862  154.1375 C.ar    1  UNL1        0.0015
     38 C         141.5445  140.4796  154.2985 C.ar    1  UNL1        0.0177
     39 H         139.5196  146.5005  159.7149 H       1  UNL1        0.1739
     40 H         142.4733  138.1864  162.2714 H       1  UNL1        0.1501
     41 C         138.2445  149.3071  157.5182 C.3     1  UNL1        0.2543
     42 O         138.9235  148.1319  158.1569 O.3     1  UNL1       -0.4553
@<TRIPOS>BOND
     1    41    42    1
     2    42     1    1
     3     1     2   ar
     4     2     3   ar
     5     3     4   ar
     6     4     5   ar
     7     5     6   ar
     8     6     7    1
     9     7     8    1
    10     8     9    2
    11     8    10    2
    12     8    11    1
    13    11    12   ar
    14    12    13   ar
    15    13    14   ar
    16    14    15    1
    17    14    16   ar
    18    16    17   ar
    19    17    18    1
    20    13    19    1
    21    19    20    2
    22    19    21   am
    23    21    22    1
    24    22    23    1
    25    23    24   ar
    26    24    25   ar
    27    25    26   ar
    28    26    27   ar
    29    27    28   ar
    30    27    29    1
    31    29    30   ar
    32    30    31   ar
    33    31    32   ar
    34    32    33   ar
    35    33    34   ar
    36    34    35   ar
    37    35    36   ar
    38    36    37   ar
    39    37    38   ar
    40     6     1   ar
    41    17    11   ar
    42    28    23   ar
    43    38    29   ar
    44    36     4    1
    45    38    33   ar
    46     7    39    1
    47    21    40    1
@<TRIPOS>MOLECULE
*****
 42 47 0 0 0
SMALL
GASTEIGER

@<TRIPOS>ATOM
      1 C         143.2765  136.8215  156.4924 C.ar    1  UNL1        0.2400
      2 N         143.3190  135.8698  157.6511 N.ar    1  UNL1       -0.2090
      3 C         142.9352  136.3404  159.0227 C.ar    1  UNL1        0.1021
      4 C         142.4623  137.6967  159.5827 C.ar    1  UNL1        0.0207
      5 C         142.7303  137.7233  158.1071 C.ar    1  UNL1        0.0221
      6 C         142.8503  138.2439  156.7055 C.ar    1  UNL1        0.1178
      7 N         142.8079  139.1957  155.5468 N.pl3   1  UNL1       -0.2104
      8 S         142.6080  140.4638  154.7710 S.O2    1  UNL1        0.0759
      9 O         142.7800  140.8238  153.3250 O.2     1  UNL1       -0.1499
     10 O         143.0773  139.3174  153.9251 O.2     1  UNL1       -0.1499
     11 C         142.2749  141.8953  154.4716 C.ar    1  UNL1        0.1527
     12 C         141.8488  143.3176  154.6845 C.ar    1  UNL1        0.0293
     13 C         141.3809  144.5592  155.3843 C.ar    1  UNL1        0.0822
     14 C         141.6087  144.7584  153.8726 C.ar    1  UNL1        0.1468
     15 F         141.2756  146.1900  153.5731 F       1  UNL1       -0.2039
     16 C         142.0619  143.8474  152.7704 C.ar    1  UNL1        0.0608
     17 C         142.3950  142.4159  153.0699 C.ar    1  UNL1        0.1611
     18 F         142.8481  141.5049  151.9677 F       1  UNL1       -0.2027
     19 C         140.9277  145.4702  156.4864 C.2     1  UNL1        0.2483
     20 O         140.7279  146.7383  155.7106 O.2     1  UNL1       -0.2701
     21 N         140.5440  145.9408  157.8580 N.am    1  UNL1       -0.2968
     22 C         140.2760  145.9141  159.3336 C.3     1  UNL1        0.1166
     23 C         140.1559  145.3936  160.7354 C.ar    1  UNL1       -0.0026
     24 C         139.7028  146.3046  161.8375 C.ar    1  UNL1       -0.0026
     25 C         139.5828  145.7840  163.2391 C.ar    1  UNL1       -0.0003
     26 C         139.9159  144.3525  163.5386 C.ar    1  UNL1       -0.0000
     27 C         140.3690  143.4415  162.4364 C.ar    1  UNL1       -0.0002
     28 C         140.4890  143.9620  161.0348 C.ar    1  UNL1       -0.0026
     29 C         140.7313  141.7422  162.9693 C.ar    1  UNL1        0.0030
     30 C         140.3476  142.2128  164.3409 C.ar    1  UNL1        0.0207
     31 C         140.3901  141.2610  165.4995 C.ar    1  UNL1        0.0988
     32 N         140.8163  139.8387  165.2864 N.ar    1  UNL1       -0.2438
     33 C         141.2000  139.3681  163.9149 C.ar    1  UNL1        0.0813
     34 C         141.6980  137.8194  163.5007 C.ar    1  UNL1        0.0191
     35 C         142.0958  137.2757  162.1605 C.ar    1  UNL1        0.0016
     36 C         142.0785  138.1673  160.9543 C.ar    1  UNL1        0.0016
     37 C         141.6254  139.0783  162.0565 C.ar    1  UNL1        0.0015
     38 C         141.1575  140.3199  162.7562 C.ar    1  UNL1        0.0177
     39 H         143.1053  138.5978  154.8235 H       1  UNL1        0.1739
     40 H         140.3254  146.8803  157.6615 H       1  UNL1        0.1501
     41 C         142.6248  135.7493  154.2175 C.3     1  UNL1        0.2543
     42 O         143.6602  136.3510  155.1208 O.3     1  UNL1       -0.4553
@<TRIPOS>BOND
     1    41    42    1
     2    42     1    1
     3     1     2   ar
     4     2     3   ar
     5     3     4   ar
     6     4     5   ar
     7     5     6   ar
     8     6     7    1
     9     7     8    1
    10     8     9    2
    11     8    10    2
    12     8    11    1
    13    11    12   ar
    14    12    13   ar
    15    13    14   ar
    16    14    15    1
    17    14    16   ar
    18    16    17   ar
    19    17    18    1
    20    13    19    1
    21    19    20    2
    22    19    21   am
    23    21    22    1
    24    22    23    1
    25    23    24   ar
    26    24    25   ar
    27    25    26   ar
    28    26    27   ar
    29    27    28   ar
    30    27    29    1
    31    29    30   ar
    32    30    31   ar
    33    31    32   ar
    34    32    33   ar
    35    33    34   ar
    36    34    35   ar
    37    35    36   ar
    38    36    37   ar
    39    37    38   ar
    40     6     1   ar
    41    17    11   ar
    42    28    23   ar
    43    38    29   ar
    44    36     4    1
    45    38    33   ar
    46     7    39    1
    47    21    40    1
@<TRIPOS>MOLECULE
*****
 42 47 0 0 0
SMALL
GASTEIGER

@<TRIPOS>ATOM
      1 C         143.5205  139.9405  162.1198 C.ar    1  UNL1        0.2400
      2 N         143.3959  141.3103  162.7181 N.ar    1  UNL1       -0.2090
      3 C         142.7379  142.4114  161.9404 C.ar    1  UNL1        0.1021
      4 C         142.0972  142.4816  160.5399 C.ar    1  UNL1        0.0207
      5 C         142.6348  141.1233  160.8808 C.ar    1  UNL1        0.0221
      6 C         142.9870  139.6718  160.7437 C.ar    1  UNL1        0.1178
      7 N         143.1116  138.3019  160.1453 N.pl3   1  UNL1       -0.2104
      8 S         142.9934  137.1791  159.1578 S.O2    1  UNL1        0.0759
      9 O         143.4135  135.7392  159.1812 O.2     1  UNL1       -0.1499
     10 O         143.6729  136.7790  160.4339 O.2     1  UNL1       -0.1499
     11 C         142.6468  136.4386  157.9002 C.ar    1  UNL1        0.1527
     12 C         142.1134  136.1699  156.5243 C.ar    1  UNL1        0.0293
     13 C         141.4577  136.4053  155.1959 C.ar    1  UNL1        0.0822
     14 C         141.9534  134.9577  155.3850 C.ar    1  UNL1        0.1468
     15 F         141.6067  134.2173  154.1275 F       1  UNL1       -0.2039
     16 C         142.6524  134.2465  156.5056 C.ar    1  UNL1        0.0608
     17 C         142.9991  134.9870  157.7632 C.ar    1  UNL1        0.1611
     18 F         143.6981  134.2759  158.8838 F       1  UNL1       -0.2027
     19 C         140.7587  137.1164  154.0753 C.2     1  UNL1        0.2483
     20 O         140.6405  135.9936  153.0878 O.2     1  UNL1       -0.2701
     21 N         140.1007  138.2175  153.2977 N.am    1  UNL1       -0.2968
     22 C         139.5632  139.5757  152.9569 C.3     1  UNL1        0.1166
     23 C         139.2109  141.0274  153.0939 C.ar    1  UNL1       -0.0026
     24 C         138.5119  141.7385  151.9733 C.ar    1  UNL1       -0.0026
     25 C         138.1596  143.1900  152.1103 C.ar    1  UNL1       -0.0003
     26 C         138.5063  143.9305  153.3679 C.ar    1  UNL1       -0.0000
     27 C         139.2053  143.2194  154.4885 C.ar    1  UNL1       -0.0002
     28 C         139.5576  141.7678  154.3515 C.ar    1  UNL1       -0.0026
     29 C         139.5512  144.2605  155.9373 C.ar    1  UNL1        0.0030
     30 C         138.8932  145.3616  155.1597 C.ar    1  UNL1        0.0207
     31 C         138.7686  146.7314  155.7581 C.ar    1  UNL1        0.0988
     32 N         139.3020  147.0001  157.1341 N.ar    1  UNL1       -0.2438
     33 C         139.9600  145.8990  157.9117 C.ar    1  UNL1        0.0813
     34 C         140.6082  146.0250  159.4551 C.ar    1  UNL1        0.0191
     35 C         141.2779  144.9764  160.2930 C.ar    1  UNL1        0.0016
     36 C         141.4393  143.5827  159.7623 C.ar    1  UNL1        0.0016
     37 C         140.7403  144.2938  158.6417 C.ar    1  UNL1        0.0015
     38 C         140.0846  144.5292  157.3133 C.ar    1  UNL1        0.0177
     39 H         143.5704  137.8351  160.8808 H       1  UNL1        0.1739
     40 H         139.8732  137.7315  152.4723 H       1  UNL1        0.1501
     41 C         144.7866  139.1278  164.2379 C.3     1  UNL1        0.2543
     42 O         144.1784  138.8393  162.8973 O.3     1  UNL1       -0.4553
@<TRIPOS>BOND
     1    41    42    1
     2    42     1    1
     3     1     2   ar
     4     2     3   ar
     5     3     4   ar
     6     4     5   ar
     7     5     6   ar
     8     6     7    1
     9     7     8    1
    10     8     9    2
    11     8    10    2
    12     8    11    1
    13    11    12   ar
    14    12    13   ar
    15    13    14   ar
    16    14    15    1
    17    14    16   ar
    18    16    17   ar
    19    17    18    1
    20    13    19    1
    21    19    20    2
    22    19    21   am
    23    21    22    1
    24    22    23    1
    25    23    24   ar
    26    24    25   ar
    27    25    26   ar
    28    26    27   ar
    29    27    28   ar
    30    27    29    1
    31    29    30   ar
    32    30    31   ar
    33    31    32   ar
    34    32    33   ar
    35    33    34   ar
    36    34    35   ar
    37    35    36   ar
    38    36    37   ar
    39    37    38   ar
    40     6     1   ar
    41    17    11   ar
    42    28    23   ar
    43    38    29   ar
    44    36     4    1
    45    38    33   ar
    46     7    39    1
    47    21    40    1
@<TRIPOS>MOLECULE
*****
 42 47 0 0 0
SMALL
GASTEIGER

@<TRIPOS>ATOM
      1 C         143.8837  140.6076  162.1587 C.ar    1  UNL1        0.2400
      2 N         144.4275  139.2466  162.4778 N.ar    1  UNL1       -0.2090
      3 C         144.2018  138.1073  161.5286 C.ar    1  UNL1        0.1021
      4 C         143.4759  137.9860  160.1739 C.ar    1  UNL1        0.0207
      5 C         143.4286  139.3692  160.7524 C.ar    1  UNL1        0.0221
      6 C         143.1142  140.8293  160.8903 C.ar    1  UNL1        0.1178
      7 N         142.5703  142.1904  160.5712 N.pl3   1  UNL1       -0.2104
      8 S         141.8628  143.2881  159.8334 S.O2    1  UNL1        0.0759
      9 O         141.6347  144.7422  160.1229 O.2     1  UNL1       -0.1499
     10 O         142.4681  143.7379  161.1302 O.2     1  UNL1       -0.1499
     11 C         141.0769  143.9902  158.7660 C.ar    1  UNL1        0.1527
     12 C         140.3073  144.2119  157.4977 C.ar    1  UNL1        0.0293
     13 C         139.6470  143.9265  156.1814 C.ar    1  UNL1        0.0822
     14 C         139.5050  145.3943  156.6312 C.ar    1  UNL1        0.1468
     15 F         138.7190  146.0964  155.5637 F       1  UNL1       -0.2039
     16 C         139.9764  146.1524  157.8366 C.ar    1  UNL1        0.0608
     17 C         140.7624  145.4504  158.9040 C.ar    1  UNL1        0.1611
     18 F         141.2338  146.2084  160.1094 F       1  UNL1       -0.2027
     19 C         139.1756  143.1684  154.9760 C.2     1  UNL1        0.2483
     20 O         138.4680  144.2661  154.2383 O.2     1  UNL1       -0.2701
     21 N         138.9498  142.0291  154.0268 N.am    1  UNL1       -0.2968
     22 C         138.9971  140.6460  153.4484 C.3     1  UNL1        0.1166
     23 C         139.3116  139.1858  153.3103 C.ar    1  UNL1       -0.0026
     24 C         138.8401  138.4277  152.1049 C.ar    1  UNL1       -0.0026
     25 C         139.1546  136.9676  151.9669 C.ar    1  UNL1       -0.0003
     26 C         139.9405  136.2655  153.0344 C.ar    1  UNL1       -0.0000
     27 C         140.4120  137.0236  154.2398 C.ar    1  UNL1       -0.0002
     28 C         140.0975  138.4837  154.3778 C.ar    1  UNL1       -0.0026
     29 C         141.3488  136.0249  155.4347 C.ar    1  UNL1        0.0030
     30 C         141.1231  134.8856  154.4854 C.ar    1  UNL1        0.0207
     31 C         141.6669  133.5245  154.8046 C.ar    1  UNL1        0.0988
     32 N         142.4365  133.3029  156.0729 N.ar    1  UNL1       -0.2438
     33 C         142.6622  134.4422  157.0221 C.ar    1  UNL1        0.0813
     34 C         143.4961  134.3706  158.4774 C.ar    1  UNL1        0.0191
     35 C         143.7623  135.4591  159.4745 C.ar    1  UNL1        0.0016
     36 C         143.2502  136.8467  159.2247 C.ar    1  UNL1        0.0016
     37 C         142.7787  136.0886  158.0192 C.ar    1  UNL1        0.0015
     38 C         142.1184  135.8033  156.7030 C.ar    1  UNL1        0.0177
     39 H         142.8798  142.6879  161.3623 H       1  UNL1        0.1739
     40 H         138.4340  142.4899  153.3262 H       1  UNL1        0.1501
     41 C         145.4787  141.9974  163.6669 C.3     1  UNL1        0.2543
     42 O         144.1094  141.7470  163.1079 O.3     1  UNL1       -0.4553
@<TRIPOS>BOND
     1    41    42    1
     2    42     1    1
     3     1     2   ar
     4     2     3   ar
     5     3     4   ar
     6     4     5   ar
     7     5     6   ar
     8     6     7    1
     9     7     8    1
    10     8     9    2
    11     8    10    2
    12     8    11    1
    13    11    12   ar
    14    12    13   ar
    15    13    14   ar
    16    14    15    1
    17    14    16   ar
    18    16    17   ar
    19    17    18    1
    20    13    19    1
    21    19    20    2
    22    19    21   am
    23    21    22    1
    24    22    23    1
    25    23    24   ar
    26    24    25   ar
    27    25    26   ar
    28    26    27   ar
    29    27    28   ar
    30    27    29    1
    31    29    30   ar
    32    30    31   ar
    33    31    32   ar
    34    32    33   ar
    35    33    34   ar
    36    34    35   ar
    37    35    36   ar
    38    36    37   ar
    39    37    38   ar
    40     6     1   ar
    41    17    11   ar
    42    28    23   ar
    43    38    29   ar
    44    36     4    1
    45    38    33   ar
    46     7    39    1
    47    21    40    1
