@<TRIPOS>MOLECULE
*****
 38 41 0 0 0
SMALL
GASTEIGER

@<TRIPOS>ATOM
      1 C         141.0385  141.9151  167.7595 C.ar    1  UNL1        0.2434
      2 N         140.4061  142.7303  168.8484 N.ar    1  UNL1       -0.2088
      3 C         141.2515  143.2887  169.9545 C.ar    1  UNL1        0.1022
      4 C         142.7293  143.0320  169.9717 C.ar    1  UNL1        0.0222
      5 C         143.3617  142.2169  168.8829 C.ar    1  UNL1        0.0211
      6 C         142.5163  141.6584  167.7767 C.ar    1  UNL1        0.1058
      7 N         143.1487  140.8433  166.6879 N.am    1  UNL1       -0.2643
      8 C         143.2711  141.4075  165.3034 C.2     1  UNL1        0.3083
      9 O         142.7611  142.7868  165.0078 O.2     1  UNL1       -0.2521
     10 N         143.9034  140.5924  164.2146 N.am    1  UNL1       -0.2681
     11 H         143.4834  139.9380  166.8819 H       1  UNL1        0.1566
     12 H         144.2382  139.6871  164.4086 H       1  UNL1        0.1564
     13 C         144.0258  141.1566  162.8301 C.ar    1  UNL1        0.0518
     14 C         144.7010  142.4788  162.6160 C.ar    1  UNL1        0.0178
     15 C         144.8234  143.0429  161.2316 C.ar    1  UNL1        0.0385
     16 C         144.2706  142.2849  160.0612 C.ar    1  UNL1        0.1469
     17 C         143.5954  140.9627  160.2753 C.ar    1  UNL1        0.0385
     18 C         143.4730  140.3985  161.6597 C.ar    1  UNL1        0.0178
     19 O         144.3930  142.8491  158.6768 O.3     1  UNL1       -0.4045
     20 C         145.3241  142.2133  157.6874 C.3     1  UNL1        0.5753
     21 F         146.2551  141.5776  156.6980 F       1  UNL1       -0.1328
     22 F         144.1731  141.4614  157.0875 F       1  UNL1       -0.1328
     23 F         146.4750  142.9653  158.2872 F       1  UNL1       -0.1328
     24 O         140.1931  141.3567  166.6534 O.3     1  UNL1       -0.4353
     25 C         137.6814  139.2585  161.7165 C.3     1  UNL1        0.0901
     26 N         138.0063  140.4189  162.6098 N.3     1  UNL1       -0.2652
     27 C         137.6288  141.8503  162.3682 C.3     1  UNL1        0.0992
     28 C         138.1549  142.6677  163.5107 C.ar    1  UNL1       -0.0059
     29 C         138.0849  144.1357  163.8105 C.ar    1  UNL1       -0.0030
     30 C         138.7176  144.6774  165.0579 C.ar    1  UNL1        0.0028
     31 C         139.4203  143.7511  166.0056 C.ar    1  UNL1        0.0373
     32 C         139.4904  142.2830  165.7058 C.ar    1  UNL1        0.1442
     33 C         138.8576  141.7413  164.4583 C.ar    1  UNL1        0.0242
     34 C         138.7658  140.3515  163.9015 C.3     1  UNL1        0.0830
     35 C         139.3338  139.1120  164.5268 C.3     1  UNL1        0.0175
     36 C         140.5624  139.2462  163.6768 C.3     1  UNL1        0.0017
     37 C         138.1052  138.9777  165.3767 C.3     1  UNL1        0.0017
     38 C         139.9018  137.8724  165.1520 C.3     1  UNL1        0.0017
@<TRIPOS>BOND
     1    25    26    1
     2    26    27    1
     3    27    28    1
     4    28    29   ar
     5    29    30   ar
     6    30    31   ar
     7    31    32   ar
     8    32    24    1
     9    24     1    1
    10     1     2   ar
    11     2     3   ar
    12     3     4   ar
    13     4     5   ar
    14     5     6   ar
    15     6     7    1
    16     7     8   am
    17     8     9    2
    18     8    10   am
    19    10    13    1
    20    13    14   ar
    21    14    15   ar
    22    15    16   ar
    23    16    19    1
    24    19    20    1
    25    20    21    1
    26    20    22    1
    27    20    23    1
    28    16    17   ar
    29    17    18   ar
    30    32    33   ar
    31    33    34    1
    32    34    35    1
    33    35    36    1
    34    35    37    1
    35    35    38    1
    36    34    26    1
    37    33    28   ar
    38     6     1   ar
    39    18    13   ar
    40     7    11    1
    41    10    12    1
@<TRIPOS>MOLECULE
*****
 38 41 0 0 0
SMALL
GASTEIGER

@<TRIPOS>ATOM
      1 C         141.7565  139.7989  160.3752 C.ar    1  UNL1        0.2434
      2 N         141.6612  138.5340  159.5744 N.ar    1  UNL1       -0.2088
      3 C         142.6776  137.4474  159.7648 C.ar    1  UNL1        0.1022
      4 C         143.7893  137.6256  160.7559 C.ar    1  UNL1        0.0222
      5 C         143.8846  138.8904  161.5567 C.ar    1  UNL1        0.0211
      6 C         142.8682  139.9771  161.3663 C.ar    1  UNL1        0.1058
      7 N         142.9635  141.2419  162.1670 N.am    1  UNL1       -0.2643
      8 C         142.5220  141.2571  163.6005 C.2     1  UNL1        0.3083
      9 O         141.9851  140.0076  164.2332 O.2     1  UNL1       -0.2521
     10 N         142.6173  142.5219  164.4012 N.am    1  UNL1       -0.2681
     11 H         143.3159  142.0620  161.7517 H       1  UNL1        0.1566
     12 H         142.9697  143.3420  163.9859 H       1  UNL1        0.1564
     13 C         142.1758  142.5371  165.8347 C.ar    1  UNL1        0.0518
     14 C         143.1606  142.2390  166.9260 C.ar    1  UNL1        0.0178
     15 C         142.7191  142.2543  168.3595 C.ar    1  UNL1        0.0385
     16 C         141.2926  142.5677  168.7016 C.ar    1  UNL1        0.1469
     17 C         140.3077  142.8658  167.6102 C.ar    1  UNL1        0.0385
     18 C         140.7493  142.8505  166.1767 C.ar    1  UNL1        0.0178
     19 O         140.8511  142.5829  170.1350 O.3     1  UNL1       -0.4045
     20 C         140.4820  141.3004  170.8198 C.3     1  UNL1        0.5753
     21 F         140.1130  140.0180  171.5046 F       1  UNL1       -0.1328
     22 F         139.1094  141.3750  170.2196 F       1  UNL1       -0.1328
     23 F         141.8546  141.2259  171.4200 F       1  UNL1       -0.1328
     24 O         140.7401  140.8854  160.1848 O.3     1  UNL1       -0.4353
     25 C         139.4778  146.4799  161.6656 C.3     1  UNL1        0.0901
     26 N         139.2633  145.0090  161.8664 N.3     1  UNL1       -0.2652
     27 C         138.3312  144.3815  162.8601 C.3     1  UNL1        0.0992
     28 C         138.4351  142.8919  162.7167 C.ar    1  UNL1       -0.0059
     29 C         137.7512  141.7646  163.4318 C.ar    1  UNL1       -0.0030
     30 C         138.0636  140.3443  163.0646 C.ar    1  UNL1        0.0028
     31 C         139.0599  140.0512  161.9823 C.ar    1  UNL1        0.0373
     32 C         139.7438  141.1785  161.2671 C.ar    1  UNL1        0.1442
     33 C         139.4314  142.5989  161.6344 C.ar    1  UNL1        0.0242
     34 C         139.9432  143.9073  161.1089 C.3     1  UNL1        0.0830
     35 C         140.9571  144.0830  160.0174 C.3     1  UNL1        0.0175
     36 C         139.8660  144.0037  158.9912 C.3     1  UNL1        0.0017
     37 C         142.0481  144.1624  161.0436 C.3     1  UNL1        0.0017
     38 C         141.9708  144.2588  158.9259 C.3     1  UNL1        0.0017
@<TRIPOS>BOND
     1    25    26    1
     2    26    27    1
     3    27    28    1
     4    28    29   ar
     5    29    30   ar
     6    30    31   ar
     7    31    32   ar
     8    32    24    1
     9    24     1    1
    10     1     2   ar
    11     2     3   ar
    12     3     4   ar
    13     4     5   ar
    14     5     6   ar
    15     6     7    1
    16     7     8   am
    17     8     9    2
    18     8    10   am
    19    10    13    1
    20    13    14   ar
    21    14    15   ar
    22    15    16   ar
    23    16    19    1
    24    19    20    1
    25    20    21    1
    26    20    22    1
    27    20    23    1
    28    16    17   ar
    29    17    18   ar
    30    32    33   ar
    31    33    34    1
    32    34    35    1
    33    35    36    1
    34    35    37    1
    35    35    38    1
    36    34    26    1
    37    33    28   ar
    38     6     1   ar
    39    18    13   ar
    40     7    11    1
    41    10    12    1
@<TRIPOS>MOLECULE
*****
 38 41 0 0 0
SMALL
GASTEIGER

@<TRIPOS>ATOM
      1 C         139.7244  142.6839  159.6663 C.ar    1  UNL1        0.2434
      2 N         139.0413  143.6132  158.7072 N.ar    1  UNL1       -0.2088
      3 C         139.8551  144.5301  157.8430 C.ar    1  UNL1        0.1022
      4 C         141.3520  144.5178  157.9379 C.ar    1  UNL1        0.0222
      5 C         142.0352  143.5886  158.8969 C.ar    1  UNL1        0.0211
      6 C         141.2213  142.6716  159.7612 C.ar    1  UNL1        0.1058
      7 N         141.9044  141.7424  160.7202 N.am    1  UNL1       -0.2643
      8 C         142.1093  142.1555  162.1476 C.2     1  UNL1        0.3083
      9 O         141.6311  143.4979  162.6159 O.2     1  UNL1       -0.2521
     10 N         142.7924  141.2263  163.1067 N.am    1  UNL1       -0.2681
     11 H         142.2183  140.8613  160.4129 H       1  UNL1        0.1566
     12 H         143.1063  140.3452  162.7993 H       1  UNL1        0.1564
     13 C         142.9973  141.6394  164.5340 C.ar    1  UNL1        0.0518
     14 C         142.1193  141.0755  165.6115 C.ar    1  UNL1        0.0178
     15 C         142.3242  141.4886  167.0388 C.ar    1  UNL1        0.0385
     16 C         143.4071  142.4656  167.3887 C.ar    1  UNL1        0.1469
     17 C         144.2853  143.0296  166.3113 C.ar    1  UNL1        0.0385
     18 C         144.0804  142.6165  164.8839 C.ar    1  UNL1        0.0178
     19 O         143.6120  142.8788  168.8161 O.3     1  UNL1       -0.4045
     20 C         142.7299  142.3197  169.8927 C.3     1  UNL1        0.5753
     21 F         141.8477  141.7606  170.9693 F       1  UNL1       -0.1328
     22 F         143.6489  141.1428  170.0346 F       1  UNL1       -0.1328
     23 F         141.8108  143.4966  169.7508 F       1  UNL1       -0.1328
     24 O         138.9105  141.7670  160.5305 O.3     1  UNL1       -0.4353
     25 C         138.7345  137.7120  164.8445 C.3     1  UNL1        0.0901
     26 N         138.5860  139.1377  164.4028 N.3     1  UNL1       -0.2652
     27 C         138.2230  140.2992  165.2798 C.3     1  UNL1        0.0992
     28 C         138.1871  141.5317  164.4255 C.ar    1  UNL1       -0.0059
     29 C         137.8881  142.9663  164.7455 C.ar    1  UNL1       -0.0030
     30 C         137.9299  144.0012  163.6605 C.ar    1  UNL1        0.0028
     31 C         138.2707  143.6014  162.2555 C.ar    1  UNL1        0.0373
     32 C         138.5697  142.1668  161.9355 C.ar    1  UNL1        0.1442
     33 C         138.5279  141.1319  163.0205 C.ar    1  UNL1        0.0242
     34 C         138.7744  139.6524  163.0065 C.3     1  UNL1        0.0830
     35 C         139.1444  138.8316  161.8067 C.3     1  UNL1        0.0175
     36 C         140.5934  138.9405  162.1791 C.3     1  UNL1        0.0017
     37 C         137.6956  138.7227  161.4344 C.3     1  UNL1        0.0017
     38 C         139.5145  138.0108  160.6069 C.3     1  UNL1        0.0017
@<TRIPOS>BOND
     1    25    26    1
     2    26    27    1
     3    27    28    1
     4    28    29   ar
     5    29    30   ar
     6    30    31   ar
     7    31    32   ar
     8    32    24    1
     9    24     1    1
    10     1     2   ar
    11     2     3   ar
    12     3     4   ar
    13     4     5   ar
    14     5     6   ar
    15     6     7    1
    16     7     8   am
    17     8     9    2
    18     8    10   am
    19    10    13    1
    20    13    14   ar
    21    14    15   ar
    22    15    16   ar
    23    16    19    1
    24    19    20    1
    25    20    21    1
    26    20    22    1
    27    20    23    1
    28    16    17   ar
    29    17    18   ar
    30    32    33   ar
    31    33    34    1
    32    34    35    1
    33    35    36    1
    34    35    37    1
    35    35    38    1
    36    34    26    1
    37    33    28   ar
    38     6     1   ar
    39    18    13   ar
    40     7    11    1
    41    10    12    1
@<TRIPOS>MOLECULE
*****
 38 41 0 0 0
SMALL
GASTEIGER

@<TRIPOS>ATOM
      1 C         140.9771  141.8891  167.8158 C.ar    1  UNL1        0.2434
      2 N         140.4441  142.5915  169.0294 N.ar    1  UNL1       -0.2088
      3 C         141.3890  143.0951  170.0799 C.ar    1  UNL1        0.1022
      4 C         142.8668  142.8965  169.9168 C.ar    1  UNL1        0.0222
      5 C         143.3998  142.1943  168.7032 C.ar    1  UNL1        0.0211
      6 C         142.4549  141.6905  167.6527 C.ar    1  UNL1        0.1058
      7 N         142.9878  140.9882  166.4392 N.am    1  UNL1       -0.2643
      8 C         142.9861  141.6826  165.1096 C.2     1  UNL1        0.3083
      9 O         142.4515  143.0792  164.9935 O.2     1  UNL1       -0.2521
     10 N         143.5191  140.9803  163.8960 N.am    1  UNL1       -0.2681
     11 H         143.3388  140.0716  166.5153 H       1  UNL1        0.1566
     12 H         143.8700  140.0636  163.9722 H       1  UNL1        0.1564
     13 C         143.5174  141.6747  162.5664 C.ar    1  UNL1        0.0518
     14 C         142.2293  142.1756  161.9836 C.ar    1  UNL1        0.0178
     15 C         142.2276  142.8700  160.6539 C.ar    1  UNL1        0.0385
     16 C         143.5140  143.0634  159.9072 C.ar    1  UNL1        0.1469
     17 C         144.8022  142.5624  160.4900 C.ar    1  UNL1        0.0385
     18 C         144.8039  141.8680  161.8196 C.ar    1  UNL1        0.0178
     19 O         143.5123  143.7577  158.5776 O.3     1  UNL1       -0.4045
     20 C         142.2363  143.8842  157.7991 C.3     1  UNL1        0.5753
     21 F         140.9604  144.0107  157.0207 F       1  UNL1       -0.1328
     22 F         142.1018  145.3081  158.2511 F       1  UNL1       -0.1328
     23 F         142.3709  142.4603  157.3472 F       1  UNL1       -0.1328
     24 O         140.0322  141.3854  166.7654 O.3     1  UNL1       -0.4353
     25 C         137.6766  139.4389  161.6912 C.3     1  UNL1        0.0901
     26 N         137.9956  140.5752  162.6171 N.3     1  UNL1       -0.2652
     27 C         137.6696  142.0206  162.3839 C.3     1  UNL1        0.0992
     28 C         138.1691  142.8043  163.5614 C.ar    1  UNL1       -0.0059
     29 C         138.1279  144.2689  163.8827 C.ar    1  UNL1       -0.0030
     30 C         138.7215  144.7723  165.1649 C.ar    1  UNL1        0.0028
     31 C         139.3563  143.8111  166.1258 C.ar    1  UNL1        0.0373
     32 C         139.3974  142.3466  165.8045 C.ar    1  UNL1        0.1442
     33 C         138.8038  141.8432  164.5223 C.ar    1  UNL1        0.0242
     34 C         138.6966  140.4655  163.9386 C.3     1  UNL1        0.0830
     35 C         139.2017  139.2003  164.5664 C.3     1  UNL1        0.0175
     36 C         137.9717  139.1339  165.4223 C.3     1  UNL1        0.0017
     37 C         140.4317  139.2667  163.7106 C.3     1  UNL1        0.0017
     38 C         139.7068  137.9351  165.1943 C.3     1  UNL1        0.0017
@<TRIPOS>BOND
     1    25    26    1
     2    26    27    1
     3    27    28    1
     4    28    29   ar
     5    29    30   ar
     6    30    31   ar
     7    31    32   ar
     8    32    24    1
     9    24     1    1
    10     1     2   ar
    11     2     3   ar
    12     3     4   ar
    13     4     5   ar
    14     5     6   ar
    15     6     7    1
    16     7     8   am
    17     8     9    2
    18     8    10   am
    19    10    13    1
    20    13    14   ar
    21    14    15   ar
    22    15    16   ar
    23    16    19    1
    24    19    20    1
    25    20    21    1
    26    20    22    1
    27    20    23    1
    28    16    17   ar
    29    17    18   ar
    30    32    33   ar
    31    33    34    1
    32    34    35    1
    33    35    36    1
    34    35    37    1
    35    35    38    1
    36    34    26    1
    37    33    28   ar
    38     6     1   ar
    39    18    13   ar
    40     7    11    1
    41    10    12    1
@<TRIPOS>MOLECULE
*****
 38 41 0 0 0
SMALL
GASTEIGER

@<TRIPOS>ATOM
      1 C         140.1879  140.4453  167.8661 C.ar    1  UNL1        0.2434
      2 N         139.2530  140.0007  168.9516 N.ar    1  UNL1       -0.2088
      3 C         138.9734  140.9030  170.1168 C.ar    1  UNL1        0.1022
      4 C         139.6288  142.2499  170.1966 C.ar    1  UNL1        0.0222
      5 C         140.5637  142.6945  169.1111 C.ar    1  UNL1        0.0211
      6 C         140.8433  141.7922  167.9458 C.ar    1  UNL1        0.1058
      7 N         141.7782  142.2369  166.8604 N.am    1  UNL1       -0.2643
      8 C         141.2329  142.8586  165.6090 C.2     1  UNL1        0.3083
      9 O         139.7527  143.0357  165.4429 O.2     1  UNL1       -0.2521
     10 N         142.1678  143.3032  164.5236 N.am    1  UNL1       -0.2681
     11 H         142.7497  142.1207  166.9694 H       1  UNL1        0.1566
     12 H         143.1393  143.1870  164.6325 H       1  UNL1        0.1564
     13 C         141.6225  143.9249  163.2721 C.ar    1  UNL1        0.0518
     14 C         141.8416  143.2582  161.9465 C.ar    1  UNL1        0.0178
     15 C         141.2963  143.8799  160.6950 C.ar    1  UNL1        0.0385
     16 C         140.5320  145.1684  160.7692 C.ar    1  UNL1        0.1469
     17 C         140.3128  145.8352  162.0949 C.ar    1  UNL1        0.0385
     18 C         140.8581  145.2135  163.3464 C.ar    1  UNL1        0.0178
     19 O         139.9867  145.7901  159.5177 O.3     1  UNL1       -0.4045
     20 C         140.2952  145.1815  158.1820 C.3     1  UNL1        0.5753
     21 F         140.6038  144.5728  156.8462 F       1  UNL1       -0.1328
     22 F         141.3663  146.2081  157.9616 F       1  UNL1       -0.1328
     23 F         139.2241  144.1548  158.4024 F       1  UNL1       -0.1328
     24 O         140.4675  139.5431  166.7009 O.3     1  UNL1       -0.4353
     25 C         143.5012  138.7845  161.6704 C.3     1  UNL1        0.0901
     26 N         142.2288  139.1626  162.3689 N.3     1  UNL1       -0.2652
     27 C         140.9555  139.5988  161.7068 C.3     1  UNL1        0.0992
     28 C         139.9460  139.8767  162.7808 C.ar    1  UNL1       -0.0059
     29 C         138.5194  140.3363  162.7227 C.ar    1  UNL1       -0.0030
     30 C         137.7421  140.5315  163.9907 C.ar    1  UNL1        0.0028
     31 C         138.3915  140.2671  165.3167 C.ar    1  UNL1        0.0373
     32 C         139.8181  139.8075  165.3748 C.ar    1  UNL1        0.1442
     33 C         140.5954  139.6123  164.1069 C.ar    1  UNL1        0.0242
     34 C         142.0062  139.1710  163.8523 C.3     1  UNL1        0.0830
     35 C         143.0170  138.8026  164.8976 C.3     1  UNL1        0.0175
     36 C         142.3816  137.4509  165.0357 C.3     1  UNL1        0.0017
     37 C         143.6523  140.1543  164.7596 C.3     1  UNL1        0.0017
     38 C         144.0277  138.4342  165.9430 C.3     1  UNL1        0.0017
@<TRIPOS>BOND
     1    25    26    1
     2    26    27    1
     3    27    28    1
     4    28    29   ar
     5    29    30   ar
     6    30    31   ar
     7    31    32   ar
     8    32    24    1
     9    24     1    1
    10     1     2   ar
    11     2     3   ar
    12     3     4   ar
    13     4     5   ar
    14     5     6   ar
    15     6     7    1
    16     7     8   am
    17     8     9    2
    18     8    10   am
    19    10    13    1
    20    13    14   ar
    21    14    15   ar
    22    15    16   ar
    23    16    19    1
    24    19    20    1
    25    20    21    1
    26    20    22    1
    27    20    23    1
    28    16    17   ar
    29    17    18   ar
    30    32    33   ar
    31    33    34    1
    32    34    35    1
    33    35    36    1
    34    35    37    1
    35    35    38    1
    36    34    26    1
    37    33    28   ar
    38     6     1   ar
    39    18    13   ar
    40     7    11    1
    41    10    12    1
@<TRIPOS>MOLECULE
*****
 38 41 0 0 0
SMALL
GASTEIGER

@<TRIPOS>ATOM
      1 C         139.8747  141.9198  159.5361 C.ar    1  UNL1        0.2434
      2 N         139.3099  142.8452  158.4994 N.ar    1  UNL1       -0.2088
      3 C         138.0466  142.4810  157.7773 C.ar    1  UNL1        0.1022
      4 C         137.3480  141.1914  158.0919 C.ar    1  UNL1        0.0222
      5 C         137.9127  140.2660  159.1286 C.ar    1  UNL1        0.0211
      6 C         139.1761  140.6302  159.8507 C.ar    1  UNL1        0.1058
      7 N         139.7408  139.7048  160.8873 N.am    1  UNL1       -0.2643
      8 C         139.4470  139.9369  162.3398 C.2     1  UNL1        0.3083
      9 O         138.5884  141.0944  162.7557 O.2     1  UNL1       -0.2521
     10 N         140.0117  139.0115  163.3765 N.am    1  UNL1       -0.2681
     11 H         140.3044  138.9451  160.6144 H       1  UNL1        0.1566
     12 H         140.5752  138.2517  163.1035 H       1  UNL1        0.1564
     13 C         139.7178  139.2436  164.8290 C.ar    1  UNL1        0.0518
     14 C         138.5257  138.5933  165.4662 C.ar    1  UNL1        0.0178
     15 C         138.2318  138.8254  166.9187 C.ar    1  UNL1        0.0385
     16 C         139.1301  139.7078  167.7340 C.ar    1  UNL1        0.1469
     17 C         140.3222  140.3580  167.0968 C.ar    1  UNL1        0.0385
     18 C         140.6161  140.1259  165.6442 C.ar    1  UNL1        0.0178
     19 O         138.8362  139.9398  169.1865 O.3     1  UNL1       -0.4045
     20 C         139.8702  140.5740  170.0689 C.3     1  UNL1        0.5753
     21 F         140.9042  141.2081  170.9513 F       1  UNL1       -0.1328
     22 F         140.6754  139.3089  170.0344 F       1  UNL1       -0.1328
     23 F         139.0649  141.8390  170.1034 F       1  UNL1       -0.1328
     24 O         141.1380  142.2839  160.2581 O.3     1  UNL1       -0.4353
     25 C         145.4309  142.0685  164.3336 C.3     1  UNL1        0.0901
     26 N         144.1371  142.6514  163.8474 N.3     1  UNL1       -0.2652
     27 C         143.3313  143.7098  164.5405 C.3     1  UNL1        0.0992
     28 C         142.1182  143.9908  163.7042 C.ar    1  UNL1       -0.0059
     29 C         140.9697  144.9380  163.8882 C.ar    1  UNL1       -0.0030
     30 C         139.8774  145.0005  162.8622 C.ar    1  UNL1        0.0028
     31 C         139.9335  144.1158  161.6521 C.ar    1  UNL1        0.0373
     32 C         141.0819  143.1686  161.4681 C.ar    1  UNL1        0.1442
     33 C         142.1743  143.1061  162.4942 C.ar    1  UNL1        0.0242
     34 C         143.4221  142.2784  162.5827 C.3     1  UNL1        0.0830
     35 C         143.8752  141.2568  161.5821 C.3     1  UNL1        0.0175
     36 C         143.1155  140.1956  162.3215 C.3     1  UNL1        0.0017
     37 C         144.6348  142.3180  160.8427 C.3     1  UNL1        0.0017
     38 C         144.3283  140.2352  160.5815 C.3     1  UNL1        0.0017
@<TRIPOS>BOND
     1    25    26    1
     2    26    27    1
     3    27    28    1
     4    28    29   ar
     5    29    30   ar
     6    30    31   ar
     7    31    32   ar
     8    32    24    1
     9    24     1    1
    10     1     2   ar
    11     2     3   ar
    12     3     4   ar
    13     4     5   ar
    14     5     6   ar
    15     6     7    1
    16     7     8   am
    17     8     9    2
    18     8    10   am
    19    10    13    1
    20    13    14   ar
    21    14    15   ar
    22    15    16   ar
    23    16    19    1
    24    19    20    1
    25    20    21    1
    26    20    22    1
    27    20    23    1
    28    16    17   ar
    29    17    18   ar
    30    32    33   ar
    31    33    34    1
    32    34    35    1
    33    35    36    1
    34    35    37    1
    35    35    38    1
    36    34    26    1
    37    33    28   ar
    38     6     1   ar
    39    18    13   ar
    40     7    11    1
    41    10    12    1
@<TRIPOS>MOLECULE
*****
 38 41 0 0 0
SMALL
GASTEIGER

@<TRIPOS>ATOM
      1 C         140.8973  143.0996  162.9634 C.ar    1  UNL1        0.2434
      2 N         139.7455  143.8856  163.5163 N.ar    1  UNL1       -0.2088
      3 C         139.3790  145.2072  162.9088 C.ar    1  UNL1        0.1022
      4 C         140.1642  145.7428  161.7484 C.ar    1  UNL1        0.0222
      5 C         141.3160  144.9569  161.1955 C.ar    1  UNL1        0.0211
      6 C         141.6825  143.6352  161.8030 C.ar    1  UNL1        0.1058
      7 N         142.8343  142.8493  161.2501 N.am    1  UNL1       -0.2643
      8 C         142.5884  141.7685  160.2395 C.2     1  UNL1        0.3083
      9 O         141.1907  141.4736  159.7818 O.2     1  UNL1       -0.2521
     10 N         143.7401  140.9825  159.6866 N.am    1  UNL1       -0.2681
     11 H         143.7516  143.0428  161.5506 H       1  UNL1        0.1566
     12 H         144.6575  141.1761  159.9871 H       1  UNL1        0.1564
     13 C         143.4942  139.9017  158.6760 C.ar    1  UNL1        0.0518
     14 C         142.9125  138.5886  159.1087 C.ar    1  UNL1        0.0178
     15 C         142.6666  137.5078  158.0981 C.ar    1  UNL1        0.0385
     16 C         143.0024  137.7401  156.6547 C.ar    1  UNL1        0.1469
     17 C         143.5841  139.0533  156.2220 C.ar    1  UNL1        0.0385
     18 C         143.8300  140.1341  157.2326 C.ar    1  UNL1        0.0178
     19 O         142.7565  136.6593  155.6441 O.3     1  UNL1       -0.4045
     20 C         142.5699  135.2405  156.0937 C.3     1  UNL1        0.5753
     21 F         142.3833  133.8217  156.5432 F       1  UNL1       -0.1328
     22 F         141.0922  135.3633  155.8678 F       1  UNL1       -0.1328
     23 F         144.0477  135.1177  156.3195 F       1  UNL1       -0.1328
     24 O         141.2638  141.7780  163.5709 O.3     1  UNL1       -0.4353
     25 C         137.6854  138.5883  167.0502 C.3     1  UNL1        0.0901
     26 N         138.8917  139.4660  166.8936 N.3     1  UNL1       -0.2652
     27 C         139.8148  139.9003  167.9933 C.3     1  UNL1        0.0992
     28 C         140.8804  140.7661  167.3892 C.ar    1  UNL1       -0.0059
     29 C         142.0574  141.4758  167.9901 C.ar    1  UNL1       -0.0030
     30 C         142.9698  142.2862  167.1179 C.ar    1  UNL1        0.0028
     31 C         142.7053  142.3869  165.6449 C.ar    1  UNL1        0.0373
     32 C         141.5283  141.6773  165.0440 C.ar    1  UNL1        0.1442
     33 C         140.6159  140.8669  165.9161 C.ar    1  UNL1        0.0242
     34 C         139.3868  140.0633  165.6099 C.3     1  UNL1        0.0830
     35 C         138.7625  139.8880  164.2573 C.3     1  UNL1        0.0175
     36 C         137.9133  141.1021  164.4919 C.3     1  UNL1        0.0017
     37 C         139.6115  138.6740  164.0227 C.3     1  UNL1        0.0017
     38 C         138.1380  139.7127  162.9047 C.3     1  UNL1        0.0017
@<TRIPOS>BOND
     1    25    26    1
     2    26    27    1
     3    27    28    1
     4    28    29   ar
     5    29    30   ar
     6    30    31   ar
     7    31    32   ar
     8    32    24    1
     9    24     1    1
    10     1     2   ar
    11     2     3   ar
    12     3     4   ar
    13     4     5   ar
    14     5     6   ar
    15     6     7    1
    16     7     8   am
    17     8     9    2
    18     8    10   am
    19    10    13    1
    20    13    14   ar
    21    14    15   ar
    22    15    16   ar
    23    16    19    1
    24    19    20    1
    25    20    21    1
    26    20    22    1
    27    20    23    1
    28    16    17   ar
    29    17    18   ar
    30    32    33   ar
    31    33    34    1
    32    34    35    1
    33    35    36    1
    34    35    37    1
    35    35    38    1
    36    34    26    1
    37    33    28   ar
    38     6     1   ar
    39    18    13   ar
    40     7    11    1
    41    10    12    1
@<TRIPOS>MOLECULE
*****
 38 41 0 0 0
SMALL
GASTEIGER

@<TRIPOS>ATOM
      1 C         140.4913  139.8752  159.8102 C.ar    1  UNL1        0.2434
      2 N         139.6647  139.2126  158.7481 N.ar    1  UNL1       -0.2088
      3 C         140.3052  138.2541  157.7884 C.ar    1  UNL1        0.1022
      4 C         141.7721  137.9582  157.8907 C.ar    1  UNL1        0.0222
      5 C         142.5987  138.6208  158.9526 C.ar    1  UNL1        0.0211
      6 C         141.9582  139.5794  159.9124 C.ar    1  UNL1        0.1058
      7 N         142.7848  140.2420  160.9743 N.am    1  UNL1       -0.2643
      8 C         142.6267  139.8364  162.4098 C.2     1  UNL1        0.3083
      9 O         141.6421  138.7682  162.7833 O.2     1  UNL1       -0.2521
     10 N         143.4532  140.4990  163.4717 N.am    1  UNL1       -0.2681
     11 H         143.4310  140.9431  160.7292 H       1  UNL1        0.1566
     12 H         144.0995  141.2001  163.2266 H       1  UNL1        0.1564
     13 C         143.2952  140.0935  164.9072 C.ar    1  UNL1        0.0518
     14 C         143.5876  138.6827  165.3245 C.ar    1  UNL1        0.0178
     15 C         143.4295  138.2771  166.7600 C.ar    1  UNL1        0.0385
     16 C         142.9791  139.2823  167.7781 C.ar    1  UNL1        0.1469
     17 C         142.6866  140.6932  167.3608 C.ar    1  UNL1        0.0385
     18 C         142.8447  141.0988  165.9253 C.ar    1  UNL1        0.0178
     19 O         142.8210  138.8768  169.2135 O.3     1  UNL1       -0.4045
     20 C         142.2066  139.8271  170.1981 C.3     1  UNL1        0.5753
     21 F         141.5922  140.7774  171.1827 F       1  UNL1       -0.1328
     22 F         143.5747  140.2302  170.6627 F       1  UNL1       -0.1328
     23 F         140.8386  139.4240  169.7335 F       1  UNL1       -0.1328
     24 O         139.8508  140.8337  160.7699 O.3     1  UNL1       -0.4353
     25 C         138.1852  144.6124  165.0163 C.3     1  UNL1        0.0901
     26 N         138.7777  144.3708  163.6596 N.3     1  UNL1       -0.2652
     27 C         139.2683  145.4244  162.7113 C.3     1  UNL1        0.0992
     28 C         139.7775  144.7378  161.4787 C.ar    1  UNL1       -0.0059
     29 C         140.3786  145.2675  160.2106 C.ar    1  UNL1       -0.0030
     30 C         140.8037  144.3193  159.1289 C.ar    1  UNL1        0.0028
     31 C         140.6278  142.8414  159.3154 C.ar    1  UNL1        0.0373
     32 C         140.0267  142.3117  160.5834 C.ar    1  UNL1        0.1442
     33 C         139.6016  143.2599  161.6651 C.ar    1  UNL1        0.0242
     34 C         138.9837  143.0331  163.0130 C.3     1  UNL1        0.0830
     35 C         138.6333  141.7021  163.6095 C.3     1  UNL1        0.0175
     36 C         139.9949  141.6234  164.2338 C.3     1  UNL1        0.0017
     37 C         137.2717  141.7808  162.9852 C.3     1  UNL1        0.0017
     38 C         138.2830  140.3711  164.2060 C.3     1  UNL1        0.0017
@<TRIPOS>BOND
     1    25    26    1
     2    26    27    1
     3    27    28    1
     4    28    29   ar
     5    29    30   ar
     6    30    31   ar
     7    31    32   ar
     8    32    24    1
     9    24     1    1
    10     1     2   ar
    11     2     3   ar
    12     3     4   ar
    13     4     5   ar
    14     5     6   ar
    15     6     7    1
    16     7     8   am
    17     8     9    2
    18     8    10   am
    19    10    13    1
    20    13    14   ar
    21    14    15   ar
    22    15    16   ar
    23    16    19    1
    24    19    20    1
    25    20    21    1
    26    20    22    1
    27    20    23    1
    28    16    17   ar
    29    17    18   ar
    30    32    33   ar
    31    33    34    1
    32    34    35    1
    33    35    36    1
    34    35    37    1
    35    35    38    1
    36    34    26    1
    37    33    28   ar
    38     6     1   ar
    39    18    13   ar
    40     7    11    1
    41    10    12    1
@<TRIPOS>MOLECULE
*****
 38 41 0 0 0
SMALL
GASTEIGER

@<TRIPOS>ATOM
      1 C         142.7417  141.2835  163.2085 C.ar    1  UNL1        0.2434
      2 N         143.4019  140.0316  163.7054 N.ar    1  UNL1       -0.2088
      3 C         144.8821  140.0093  163.9467 C.ar    1  UNL1        0.1022
      4 C         145.7023  141.2389  163.6912 C.ar    1  UNL1        0.0222
      5 C         145.0422  142.4909  163.1944 C.ar    1  UNL1        0.0211
      6 C         143.5619  142.5132  162.9530 C.ar    1  UNL1        0.1058
      7 N         142.9018  143.7651  162.4562 N.am    1  UNL1       -0.2643
      8 C         142.4748  143.8695  161.0221 C.2     1  UNL1        0.3083
      9 O         142.7079  142.7219  160.0847 O.2     1  UNL1       -0.2521
     10 N         141.8147  145.1214  160.5253 N.am    1  UNL1       -0.2681
     11 H         142.7487  144.5184  163.0714 H       1  UNL1        0.1566
     12 H         141.6616  145.8747  161.1405 H       1  UNL1        0.1564
     13 C         141.3877  145.2258  159.0911 C.ar    1  UNL1        0.0518
     14 C         140.0665  144.6621  158.6590 C.ar    1  UNL1        0.0178
     15 C         139.6395  144.7664  157.2249 C.ar    1  UNL1        0.0385
     16 C         140.5337  145.4345  156.2228 C.ar    1  UNL1        0.1469
     17 C         141.8549  145.9982  156.6549 C.ar    1  UNL1        0.0385
     18 C         142.2819  145.8939  158.0890 C.ar    1  UNL1        0.0178
     19 O         140.1067  145.5388  154.7887 O.3     1  UNL1       -0.4045
     20 C         140.0165  146.8829  154.1289 C.3     1  UNL1        0.5753
     21 F         139.9264  148.2269  153.4690 F       1  UNL1       -0.1328
     22 F         141.3099  146.6197  153.4162 F       1  UNL1       -0.1328
     23 F         138.7232  147.1460  154.8415 F       1  UNL1       -0.1328
     24 O         141.2614  141.3058  162.9672 O.3     1  UNL1       -0.4353
     25 C         138.6948  139.6372  168.0380 C.3     1  UNL1        0.0901
     26 N         138.9844  139.3795  166.5890 N.3     1  UNL1       -0.2652
     27 C         138.5153  138.1981  165.7926 C.3     1  UNL1        0.0992
     28 C         139.0349  138.3463  164.3933 C.ar    1  UNL1       -0.0059
     29 C         138.8905  137.4866  163.1727 C.ar    1  UNL1       -0.0030
     30 C         139.5364  137.9000  161.8836 C.ar    1  UNL1        0.0028
     31 C         140.3267  139.1730  161.8151 C.ar    1  UNL1        0.0373
     32 C         140.4711  140.0328  163.0357 C.ar    1  UNL1        0.1442
     33 C         139.8252  139.6194  164.3248 C.ar    1  UNL1        0.0242
     34 C         139.7940  140.2579  165.6818 C.3     1  UNL1        0.0830
     35 C         140.4562  141.5483  166.0644 C.3     1  UNL1        0.0175
     36 C         139.2809  142.3105  165.5280 C.3     1  UNL1        0.0017
     37 C         141.6314  140.7862  166.6009 C.3     1  UNL1        0.0017
     38 C         141.1183  142.8388  166.4470 C.3     1  UNL1        0.0017
@<TRIPOS>BOND
     1    25    26    1
     2    26    27    1
     3    27    28    1
     4    28    29   ar
     5    29    30   ar
     6    30    31   ar
     7    31    32   ar
     8    32    24    1
     9    24     1    1
    10     1     2   ar
    11     2     3   ar
    12     3     4   ar
    13     4     5   ar
    14     5     6   ar
    15     6     7    1
    16     7     8   am
    17     8     9    2
    18     8    10   am
    19    10    13    1
    20    13    14   ar
    21    14    15   ar
    22    15    16   ar
    23    16    19    1
    24    19    20    1
    25    20    21    1
    26    20    22    1
    27    20    23    1
    28    16    17   ar
    29    17    18   ar
    30    32    33   ar
    31    33    34    1
    32    34    35    1
    33    35    36    1
    34    35    37    1
    35    35    38    1
    36    34    26    1
    37    33    28   ar
    38     6     1   ar
    39    18    13   ar
    40     7    11    1
    41    10    12    1
