@<TRIPOS>MOLECULE
*****
 29 34 0 0 0
SMALL
GASTEIGER

@<TRIPOS>ATOM
      1 O         143.5963  142.3859  166.6856 O.2     1  UNL1       -0.2443
      2 C         143.5283  141.9046  165.2666 C.ar    1  UNL1        0.3532
      3 N         143.2771  140.4543  164.9778 N.ar    1  UNL1       -0.2702
      4 C         143.2091  139.9730  163.5588 C.ar    1  UNL1        0.0965
      5 S         142.9773  138.6128  162.9702 S.2     1  UNL1       -0.0728
      6 C         143.0172  138.7412  161.4763 C.ar    1  UNL1        0.0210
      7 C         143.2736  140.1808  161.1415 C.ar    1  UNL1       -0.0126
      8 C         143.3923  140.9420  162.4285 C.ar    1  UNL1        0.0545
      9 C         143.6434  142.3923  162.7173 C.ar    1  UNL1        0.1717
     10 N         143.8609  143.5720  161.8167 N.ar    1  UNL1       -0.2032
     11 C         144.0633  144.7824  162.6792 C.ar    1  UNL1        0.2214
     12 N         143.9709  144.3508  164.1128 N.ar    1  UNL1       -0.1372
     13 N         143.7114  142.8736  164.1364 N.ar    1  UNL1       -0.1606
     14 C         143.3660  140.6124  159.7079 C.3     1  UNL1        0.0441
     15 C         143.2019  139.6045  158.6091 C.3     1  UNL1        0.0771
     16 N         142.9454  138.1650  158.9440 N.3     1  UNL1       -0.2682
     17 C         142.8531  137.7333  160.3775 C.3     1  UNL1        0.1054
     18 C         143.0940  139.4853  166.1081 C.3     1  UNL1        0.1378
     19 C         141.9747  139.6787  167.0878 C.ar    1  UNL1        0.0006
     20 C         140.5721  139.8773  166.5946 C.ar    1  UNL1       -0.0015
     21 C         139.4528  140.0708  167.5743 C.ar    1  UNL1        0.0111
     22 C         139.7363  140.0657  169.0474 C.ar    1  UNL1        0.0577
     23 CL        138.6171  140.2591  170.0271 Cl      1  UNL1       -0.0822
     24 C         141.1388  139.8671  169.5406 C.ar    1  UNL1        0.0111
     25 C         142.2581  139.6736  168.5608 C.ar    1  UNL1       -0.0015
     26 C         142.7813  137.1572  157.8451 C.3     1  UNL1        0.0724
     27 C         143.3036  137.4542  156.4708 C.3     1  UNL1        0.0160
     28 C         143.2378  138.2477  155.1995 C.3     1  UNL1        0.0014
     29 C         144.2741  137.1754  155.3616 C.3     1  UNL1        0.0014
@<TRIPOS>BOND
     1     1     2    2
     2     2     3   ar
     3     3    18    1
     4    18    19    1
     5    19    20   ar
     6    20    21   ar
     7    21    22   ar
     8    22    23    1
     9    22    24   ar
    10    24    25   ar
    11     3     4   ar
    12     4     5   ar
    13     5     6   ar
    14     6     7   ar
    15     7     8   ar
    16     8     9   ar
    17     9    10   ar
    18    10    11   ar
    19    11    12   ar
    20    12    13   ar
    21     7    14    1
    22    14    15    1
    23    15    16    1
    24    16    26    1
    25    26    27    1
    26    27    28    1
    27    28    29    1
    28    16    17    1
    29    13     2   ar
    30    29    27    1
    31    25    19   ar
    32     8     4   ar
    33    13     9   ar
    34    17     6    1
@<TRIPOS>MOLECULE
*****
 29 34 0 0 0
SMALL
GASTEIGER

@<TRIPOS>ATOM
      1 O         138.7991  140.1809  166.1282 O.2     1  UNL1       -0.2443
      2 C         139.0460  140.7509  164.7628 C.ar    1  UNL1        0.3532
      3 N         139.4118  142.1975  164.6090 N.ar    1  UNL1       -0.2702
      4 C         139.6587  142.7675  163.2438 C.ar    1  UNL1        0.0965
      5 S         140.0318  144.1458  162.7839 S.2     1  UNL1       -0.0728
      6 C         140.1436  144.1210  161.2883 C.ar    1  UNL1        0.0210
      7 C         139.8396  142.7275  160.8237 C.ar    1  UNL1       -0.0126
      8 C         139.5399  141.8910  162.0322 C.ar    1  UNL1        0.0545
      9 C         139.1741  140.4445  162.1861 C.ar    1  UNL1        0.1717
     10 N         138.9844  139.3451  161.1834 N.ar    1  UNL1       -0.2032
     11 C         138.6201  138.0956  161.9291 C.ar    1  UNL1        0.2214
     12 N         138.5848  138.4227  163.3926 N.ar    1  UNL1       -0.1372
     13 N         138.9272  139.8744  163.5514 N.ar    1  UNL1       -0.1606
     14 C         139.8749  142.4004  159.3603 C.3     1  UNL1        0.0441
     15 C         140.2143  143.4667  158.3614 C.3     1  UNL1        0.0771
     16 N         140.5183  144.8601  158.8260 N.3     1  UNL1       -0.2682
     17 C         140.4830  145.1873  160.2894 C.3     1  UNL1        0.1054
     18 C         139.5306  143.0740  165.8205 C.3     1  UNL1        0.1378
     19 C         140.6433  142.8508  166.8013 C.ar    1  UNL1        0.0006
     20 C         142.0018  142.4419  166.3142 C.ar    1  UNL1       -0.0015
     21 C         143.1145  142.2187  167.2951 C.ar    1  UNL1        0.0111
     22 C         142.8687  142.4045  168.7631 C.ar    1  UNL1        0.0577
     23 CL        143.9814  142.1813  169.7440 Cl      1  UNL1       -0.0822
     24 C         141.5103  142.8134  169.2503 C.ar    1  UNL1        0.0111
     25 C         140.3975  143.0366  168.2694 C.ar    1  UNL1       -0.0015
     26 C         140.8577  145.9264  157.8270 C.3     1  UNL1        0.0724
     27 C         139.8673  146.3016  156.7648 C.3     1  UNL1        0.0160
     28 C         138.8846  145.9004  155.7049 C.3     1  UNL1        0.0014
     29 C         139.1346  147.3527  155.9850 C.3     1  UNL1        0.0014
@<TRIPOS>BOND
     1     1     2    2
     2     2     3   ar
     3     3    18    1
     4    18    19    1
     5    19    20   ar
     6    20    21   ar
     7    21    22   ar
     8    22    23    1
     9    22    24   ar
    10    24    25   ar
    11     3     4   ar
    12     4     5   ar
    13     5     6   ar
    14     6     7   ar
    15     7     8   ar
    16     8     9   ar
    17     9    10   ar
    18    10    11   ar
    19    11    12   ar
    20    12    13   ar
    21     7    14    1
    22    14    15    1
    23    15    16    1
    24    16    26    1
    25    26    27    1
    26    27    28    1
    27    28    29    1
    28    16    17    1
    29    13     2   ar
    30    29    27    1
    31    25    19   ar
    32     8     4   ar
    33    13     9   ar
    34    17     6    1
@<TRIPOS>MOLECULE
*****
 29 34 0 0 0
SMALL
GASTEIGER

@<TRIPOS>ATOM
      1 O         142.0742  145.0700  159.5062 O.2     1  UNL1       -0.2443
      2 C         140.9679  144.5496  158.6371 C.ar    1  UNL1        0.3532
      3 N         140.1687  143.3577  159.0736 N.ar    1  UNL1       -0.2702
      4 C         139.0625  142.8373  158.2046 C.ar    1  UNL1        0.0965
      5 S         138.1110  141.6895  158.3705 S.2     1  UNL1       -0.0728
      6 C         137.2160  141.6517  157.1675 C.ar    1  UNL1        0.0210
      7 C         137.6143  142.7761  156.2579 C.ar    1  UNL1       -0.0126
      8 C         138.7554  143.5088  156.8988 C.ar    1  UNL1        0.0545
      9 C         139.5546  144.7007  156.4623 C.ar    1  UNL1        0.1717
     10 N         139.4830  145.5630  155.2371 N.ar    1  UNL1       -0.2032
     11 C         140.5450  146.6164  155.3490 C.ar    1  UNL1        0.2214
     12 N         141.2730  146.4051  156.6433 N.ar    1  UNL1       -0.1372
     13 N         140.6609  145.2211  157.3314 N.ar    1  UNL1       -0.1606
     14 C         136.8863  142.9874  154.9635 C.3     1  UNL1        0.0441
     15 C         135.7601  142.0744  154.5787 C.3     1  UNL1        0.0771
     16 N         135.3619  140.9500  155.4883 N.3     1  UNL1       -0.2682
     17 C         136.0898  140.7386  156.7826 C.3     1  UNL1        0.1054
     18 C         140.4758  142.6862  160.3794 C.3     1  UNL1        0.1378
     19 C         139.9761  143.2791  161.6634 C.ar    1  UNL1        0.0006
     20 C         140.9455  143.8678  162.6451 C.ar    1  UNL1       -0.0015
     21 C         140.4457  144.4608  163.9291 C.ar    1  UNL1        0.0111
     22 C         138.9764  144.4650  164.2314 C.ar    1  UNL1        0.0577
     23 CL        138.4767  145.0579  165.5154 Cl      1  UNL1       -0.0822
     24 C         138.0071  143.8764  163.2498 C.ar    1  UNL1        0.0111
     25 C         138.5069  143.2834  161.9657 C.ar    1  UNL1       -0.0015
     26 C         134.2357  140.0370  155.1034 C.3     1  UNL1        0.0724
     27 C         133.2591  139.5715  156.1423 C.3     1  UNL1        0.0160
     28 C         132.7355  138.4909  157.0414 C.3     1  UNL1        0.0014
     29 C         132.0911  139.8455  157.0426 C.3     1  UNL1        0.0014
@<TRIPOS>BOND
     1     1     2    2
     2     2     3   ar
     3     3    18    1
     4    18    19    1
     5    19    20   ar
     6    20    21   ar
     7    21    22   ar
     8    22    23    1
     9    22    24   ar
    10    24    25   ar
    11     3     4   ar
    12     4     5   ar
    13     5     6   ar
    14     6     7   ar
    15     7     8   ar
    16     8     9   ar
    17     9    10   ar
    18    10    11   ar
    19    11    12   ar
    20    12    13   ar
    21     7    14    1
    22    14    15    1
    23    15    16    1
    24    16    26    1
    25    26    27    1
    26    27    28    1
    27    28    29    1
    28    16    17    1
    29    13     2   ar
    30    29    27    1
    31    25    19   ar
    32     8     4   ar
    33    13     9   ar
    34    17     6    1
@<TRIPOS>MOLECULE
*****
 29 34 0 0 0
SMALL
GASTEIGER

@<TRIPOS>ATOM
      1 O         144.0254  142.9489  169.3102 O.2     1  UNL1       -0.2443
      2 C         143.0466  142.1516  168.5000 C.ar    1  UNL1        0.3532
      3 N         143.0790  142.2230  167.0021 N.ar    1  UNL1       -0.2702
      4 C         142.1003  141.4258  166.1919 C.ar    1  UNL1        0.0965
      5 S         141.8931  141.2957  164.7119 S.2     1  UNL1       -0.0728
      6 C         140.7540  140.3466  164.4851 C.ar    1  UNL1        0.0210
      7 C         140.2571  139.8901  165.8248 C.ar    1  UNL1       -0.0126
      8 C         141.0891  140.5570  166.8797 C.ar    1  UNL1        0.0545
      9 C         141.0568  140.4856  168.3776 C.ar    1  UNL1        0.1717
     10 N         140.1814  139.7230  169.3274 N.ar    1  UNL1       -0.2032
     11 C         140.6191  140.0490  170.7245 C.ar    1  UNL1        0.2214
     12 N         141.7650  141.0130  170.6383 N.ar    1  UNL1       -0.1372
     13 N         142.0356  141.2829  169.1878 N.ar    1  UNL1       -0.1606
     14 C         139.1111  138.9260  165.9111 C.3     1  UNL1        0.0441
     15 C         138.4621  138.4185  164.6576 C.3     1  UNL1        0.0771
     16 N         138.9589  138.8750  163.3180 N.3     1  UNL1       -0.2682
     17 C         140.1048  139.8390  163.2316 C.3     1  UNL1        0.1054
     18 C         144.0902  143.0918  166.3144 C.3     1  UNL1        0.1378
     19 C         144.3071  142.9636  164.8357 C.ar    1  UNL1        0.0006
     20 C         143.6629  143.9390  163.8957 C.ar    1  UNL1       -0.0015
     21 C         143.8799  143.8107  162.4170 C.ar    1  UNL1        0.0111
     22 C         144.7412  142.7070  161.8783 C.ar    1  UNL1        0.0577
     23 CL        144.9582  142.5788  160.3997 Cl      1  UNL1       -0.0822
     24 C         145.3854  141.7317  162.8183 C.ar    1  UNL1        0.0111
     25 C         145.1684  141.8600  164.2970 C.ar    1  UNL1       -0.0015
     26 C         138.3098  138.3674  162.0645 C.3     1  UNL1        0.0724
     27 C         138.5984  139.0288  160.7496 C.3     1  UNL1        0.0160
     28 C         138.3537  140.1415  159.7738 C.3     1  UNL1        0.0014
     29 C         139.3428  139.0620  159.4479 C.3     1  UNL1        0.0014
@<TRIPOS>BOND
     1     1     2    2
     2     2     3   ar
     3     3    18    1
     4    18    19    1
     5    19    20   ar
     6    20    21   ar
     7    21    22   ar
     8    22    23    1
     9    22    24   ar
    10    24    25   ar
    11     3     4   ar
    12     4     5   ar
    13     5     6   ar
    14     6     7   ar
    15     7     8   ar
    16     8     9   ar
    17     9    10   ar
    18    10    11   ar
    19    11    12   ar
    20    12    13   ar
    21     7    14    1
    22    14    15    1
    23    15    16    1
    24    16    26    1
    25    26    27    1
    26    27    28    1
    27    28    29    1
    28    16    17    1
    29    13     2   ar
    30    29    27    1
    31    25    19   ar
    32     8     4   ar
    33    13     9   ar
    34    17     6    1
@<TRIPOS>MOLECULE
*****
 29 34 0 0 0
SMALL
GASTEIGER

@<TRIPOS>ATOM
      1 O         137.6775  143.1987  161.2311 O.2     1  UNL1       -0.2443
      2 C         138.6887  142.5085  160.3645 C.ar    1  UNL1        0.3532
      3 N         138.7111  141.0107  160.2854 N.ar    1  UNL1       -0.2702
      4 C         139.7222  140.3205  159.4188 C.ar    1  UNL1        0.0965
      5 S         139.9842  138.8695  159.1428 S.2     1  UNL1       -0.0728
      6 C         141.1348  138.7803  158.1848 C.ar    1  UNL1        0.0210
      7 C         141.5841  140.1761  157.8685 C.ar    1  UNL1       -0.0126
      8 C         140.7110  141.1280  158.6312 C.ar    1  UNL1        0.0545
      9 C         140.6886  142.6257  158.7102 C.ar    1  UNL1        0.1717
     10 N         141.5317  143.6782  158.0534 N.ar    1  UNL1       -0.2032
     11 C         141.0416  145.0189  158.5141 C.ar    1  UNL1        0.2214
     12 N         139.8956  144.7951  159.4557 N.ar    1  UNL1       -0.1372
     13 N         139.6774  143.3160  159.5769 N.ar    1  UNL1       -0.1606
     14 C         142.7301  140.4000  156.9269 C.3     1  UNL1        0.0441
     15 C         143.4269  139.2280  156.3016 C.3     1  UNL1        0.0771
     16 N         142.9777  137.8323  156.6179 N.3     1  UNL1       -0.2682
     17 C         141.8317  137.6083  157.5594 C.3     1  UNL1        0.1054
     18 C         137.7222  140.2033  161.0730 C.3     1  UNL1        0.1378
     19 C         137.9995  139.8717  162.5094 C.ar    1  UNL1        0.0006
     20 C         137.7535  140.8967  163.5768 C.ar    1  UNL1       -0.0015
     21 C         138.0307  140.5651  165.0131 C.ar    1  UNL1        0.0111
     22 C         138.5539  139.2086  165.3822 C.ar    1  UNL1        0.0577
     23 CL        138.8312  138.8771  166.8186 Cl      1  UNL1       -0.0822
     24 C         138.7999  138.1837  164.3150 C.ar    1  UNL1        0.0111
     25 C         138.5227  138.5153  162.8786 C.ar    1  UNL1       -0.0015
     26 C         143.6745  136.6603  155.9925 C.3     1  UNL1        0.0724
     27 C         143.3357  135.2659  156.4290 C.3     1  UNL1        0.0160
     28 C         142.5866  133.9839  156.2158 C.3     1  UNL1        0.0014
     29 C         143.4977  134.1326  157.3981 C.3     1  UNL1        0.0014
@<TRIPOS>BOND
     1     1     2    2
     2     2     3   ar
     3     3    18    1
     4    18    19    1
     5    19    20   ar
     6    20    21   ar
     7    21    22   ar
     8    22    23    1
     9    22    24   ar
    10    24    25   ar
    11     3     4   ar
    12     4     5   ar
    13     5     6   ar
    14     6     7   ar
    15     7     8   ar
    16     8     9   ar
    17     9    10   ar
    18    10    11   ar
    19    11    12   ar
    20    12    13   ar
    21     7    14    1
    22    14    15    1
    23    15    16    1
    24    16    26    1
    25    26    27    1
    26    27    28    1
    27    28    29    1
    28    16    17    1
    29    13     2   ar
    30    29    27    1
    31    25    19   ar
    32     8     4   ar
    33    13     9   ar
    34    17     6    1
@<TRIPOS>MOLECULE
*****
 29 34 0 0 0
SMALL
GASTEIGER

@<TRIPOS>ATOM
      1 O         142.7545  144.0041  158.9248 O.2     1  UNL1       -0.2443
      2 C         142.4136  143.7035  160.3543 C.ar    1  UNL1        0.3532
      3 N         143.0882  142.5667  161.0631 N.ar    1  UNL1       -0.2702
      4 C         142.7473  142.2660  162.4925 C.ar    1  UNL1        0.0965
      5 S         143.2444  141.2182  163.4440 S.2     1  UNL1       -0.0728
      6 C         142.5360  141.4069  164.7526 C.ar    1  UNL1        0.0210
      7 C         141.6011  142.5713  164.6100 C.ar    1  UNL1       -0.0126
      8 C         141.7317  143.1023  163.2132 C.ar    1  UNL1        0.0545
      9 C         141.0571  144.2391  162.5044 C.ar    1  UNL1        0.1717
     10 N         140.0236  145.2296  162.9527 N.ar    1  UNL1       -0.2032
     11 C         139.7259  146.1424  161.8002 C.ar    1  UNL1        0.2214
     12 N         140.5753  145.7160  160.6397 N.ar    1  UNL1       -0.1372
     13 N         141.3980  144.5397  161.0749 N.ar    1  UNL1       -0.1606
     14 C         140.7517  142.9977  165.7705 C.3     1  UNL1        0.0441
     15 C         140.8372  142.2597  167.0736 C.3     1  UNL1        0.0771
     16 N         141.7721  141.0953  167.2161 N.3     1  UNL1       -0.2682
     17 C         142.6215  140.6689  166.0557 C.3     1  UNL1        0.1054
     18 C         144.1038  141.7304  160.3423 C.3     1  UNL1        0.1378
     19 C         143.6649  140.5337  159.5517 C.ar    1  UNL1        0.0006
     20 C         143.5649  140.6175  158.0573 C.ar    1  UNL1       -0.0015
     21 C         143.1260  139.4207  157.2667 C.ar    1  UNL1        0.0111
     22 C         142.7872  138.1400  157.9704 C.ar    1  UNL1        0.0577
     23 CL        142.3484  136.9433  157.1798 Cl      1  UNL1       -0.0822
     24 C         142.8872  138.0562  159.4646 C.ar    1  UNL1        0.0111
     25 C         143.3261  139.2530  160.2553 C.ar    1  UNL1       -0.0015
     26 C         141.8575  140.3573  168.5193 C.3     1  UNL1        0.0724
     27 C         140.6565  140.2735  169.4139 C.3     1  UNL1        0.0160
     28 C         140.0632  140.0684  170.7763 C.3     1  UNL1        0.0014
     29 C         139.1694  140.3333  169.6011 C.3     1  UNL1        0.0014
@<TRIPOS>BOND
     1     1     2    2
     2     2     3   ar
     3     3    18    1
     4    18    19    1
     5    19    20   ar
     6    20    21   ar
     7    21    22   ar
     8    22    23    1
     9    22    24   ar
    10    24    25   ar
    11     3     4   ar
    12     4     5   ar
    13     5     6   ar
    14     6     7   ar
    15     7     8   ar
    16     8     9   ar
    17     9    10   ar
    18    10    11   ar
    19    11    12   ar
    20    12    13   ar
    21     7    14    1
    22    14    15    1
    23    15    16    1
    24    16    26    1
    25    26    27    1
    26    27    28    1
    27    28    29    1
    28    16    17    1
    29    13     2   ar
    30    29    27    1
    31    25    19   ar
    32     8     4   ar
    33    13     9   ar
    34    17     6    1
@<TRIPOS>MOLECULE
*****
 29 34 0 0 0
SMALL
GASTEIGER

@<TRIPOS>ATOM
      1 O         138.9402  142.4204  159.1149 O.2     1  UNL1       -0.2443
      2 C         139.1765  142.4239  160.5962 C.ar    1  UNL1        0.3532
      3 N         139.1006  141.1417  161.3708 N.ar    1  UNL1       -0.2702
      4 C         139.3369  141.1451  162.8520 C.ar    1  UNL1        0.0965
      5 S         139.3284  140.0456  163.8724 S.2     1  UNL1       -0.0728
      6 C         139.6354  140.6518  165.2096 C.ar    1  UNL1        0.0210
      7 C         139.8337  142.1260  165.0157 C.ar    1  UNL1       -0.0126
      8 C         139.6492  142.4309  163.5587 C.ar    1  UNL1        0.0545
      9 C         139.7251  143.7131  162.7841 C.ar    1  UNL1        0.1717
     10 N         140.0114  145.1242  163.2046 N.ar    1  UNL1       -0.2032
     11 C         139.9520  145.9929  161.9831 C.ar    1  UNL1        0.2214
     12 N         139.6290  145.1186  160.8078 N.ar    1  UNL1       -0.1372
     13 N         139.4888  143.7096  161.3028 N.ar    1  UNL1       -0.1606
     14 C         140.1566  143.0002  166.1911 C.3     1  UNL1        0.0441
     15 C         140.2813  142.4003  167.5602 C.3     1  UNL1        0.0771
     16 N         140.0831  140.9262  167.7540 N.3     1  UNL1       -0.2682
     17 C         139.7601  140.0519  166.5788 C.3     1  UNL1        0.1054
     18 C         138.7883  139.8559  160.6640 C.3     1  UNL1        0.1378
     19 C         139.8236  139.2083  159.7931 C.ar    1  UNL1        0.0006
     20 C         141.1730  138.8720  160.3553 C.ar    1  UNL1       -0.0015
     21 C         142.2083  138.2244  159.4843 C.ar    1  UNL1        0.0111
     22 C         141.8942  137.9130  158.0510 C.ar    1  UNL1        0.0577
     23 CL        142.9296  137.2653  157.1800 Cl      1  UNL1       -0.0822
     24 C         140.5449  138.2492  157.4887 C.ar    1  UNL1        0.0111
     25 C         139.5096  138.8969  158.3598 C.ar    1  UNL1       -0.0015
     26 C         140.2078  140.3263  169.1232 C.3     1  UNL1        0.0724
     27 C         141.5562  139.9347  169.6505 C.3     1  UNL1        0.0160
     28 C         142.8895  140.3181  170.2211 C.3     1  UNL1        0.0014
     29 C         142.5587  138.8728  169.9933 C.3     1  UNL1        0.0014
@<TRIPOS>BOND
     1     1     2    2
     2     2     3   ar
     3     3    18    1
     4    18    19    1
     5    19    20   ar
     6    20    21   ar
     7    21    22   ar
     8    22    23    1
     9    22    24   ar
    10    24    25   ar
    11     3     4   ar
    12     4     5   ar
    13     5     6   ar
    14     6     7   ar
    15     7     8   ar
    16     8     9   ar
    17     9    10   ar
    18    10    11   ar
    19    11    12   ar
    20    12    13   ar
    21     7    14    1
    22    14    15    1
    23    15    16    1
    24    16    26    1
    25    26    27    1
    26    27    28    1
    27    28    29    1
    28    16    17    1
    29    13     2   ar
    30    29    27    1
    31    25    19   ar
    32     8     4   ar
    33    13     9   ar
    34    17     6    1
@<TRIPOS>MOLECULE
*****
 29 34 0 0 0
SMALL
GASTEIGER

@<TRIPOS>ATOM
      1 O         143.6831  141.0396  165.5357 O.2     1  UNL1       -0.2443
      2 C         142.9131  141.4330  164.3099 C.ar    1  UNL1        0.3532
      3 N         141.9461  140.4684  163.6899 N.ar    1  UNL1       -0.2702
      4 C         141.1762  140.8618  162.4643 C.ar    1  UNL1        0.0965
      5 S         140.1615  140.1284  161.6379 S.2     1  UNL1       -0.0728
      6 C         139.7315  141.0332  160.5215 C.ar    1  UNL1        0.0210
      7 C         140.4804  142.3258  160.6578 C.ar    1  UNL1       -0.0126
      8 C         141.3732  142.2198  161.8585 C.ar    1  UNL1        0.0545
      9 C         142.3402  143.1845  162.4785 C.ar    1  UNL1        0.1717
     10 N         142.7414  144.5814  162.1075 N.ar    1  UNL1       -0.2032
     11 C         143.7593  145.0513  163.1040 C.ar    1  UNL1        0.2214
     12 N         143.9872  143.9449  164.0908 N.ar    1  UNL1       -0.1372
     13 N         143.1101  142.7910  163.7042 N.ar    1  UNL1       -0.1606
     14 C         140.2524  143.4323  159.6710 C.3     1  UNL1        0.0441
     15 C         139.2757  143.2462  158.5479 C.3     1  UNL1        0.0771
     16 N         138.5269  141.9537  158.4116 N.3     1  UNL1       -0.2682
     17 C         138.7547  140.8472  159.3984 C.3     1  UNL1        0.1054
     18 C         141.7492  139.1103  164.2957 C.3     1  UNL1        0.1378
     19 C         140.5218  138.8226  165.1087 C.ar    1  UNL1        0.0006
     20 C         139.6607  137.6408  164.7744 C.ar    1  UNL1       -0.0015
     21 C         138.4334  137.3531  165.5874 C.ar    1  UNL1        0.0111
     22 C         138.0672  138.2474  166.7347 C.ar    1  UNL1        0.0577
     23 CL        136.8399  137.9597  167.5477 Cl      1  UNL1       -0.0822
     24 C         138.9282  139.4292  167.0690 C.ar    1  UNL1        0.0111
     25 C         140.1556  139.7168  166.2559 C.ar    1  UNL1       -0.0015
     26 C         137.5502  141.7676  157.2885 C.3     1  UNL1        0.0724
     27 C         137.5671  142.7041  156.1169 C.3     1  UNL1        0.0160
     28 C         138.0891  143.0801  154.7618 C.3     1  UNL1        0.0014
     29 C         137.0746  143.9503  155.4428 C.3     1  UNL1        0.0014
@<TRIPOS>BOND
     1     1     2    2
     2     2     3   ar
     3     3    18    1
     4    18    19    1
     5    19    20   ar
     6    20    21   ar
     7    21    22   ar
     8    22    23    1
     9    22    24   ar
    10    24    25   ar
    11     3     4   ar
    12     4     5   ar
    13     5     6   ar
    14     6     7   ar
    15     7     8   ar
    16     8     9   ar
    17     9    10   ar
    18    10    11   ar
    19    11    12   ar
    20    12    13   ar
    21     7    14    1
    22    14    15    1
    23    15    16    1
    24    16    26    1
    25    26    27    1
    26    27    28    1
    27    28    29    1
    28    16    17    1
    29    13     2   ar
    30    29    27    1
    31    25    19   ar
    32     8     4   ar
    33    13     9   ar
    34    17     6    1
@<TRIPOS>MOLECULE
*****
 29 34 0 0 0
SMALL
GASTEIGER

@<TRIPOS>ATOM
      1 O         139.9873  143.5400  165.4475 O.2     1  UNL1       -0.2443
      2 C         140.6014  143.3899  164.0872 C.ar    1  UNL1        0.3532
      3 N         141.4864  142.2160  163.7893 N.ar    1  UNL1       -0.2702
      4 C         142.1005  142.0658  162.4291 C.ar    1  UNL1        0.0965
      5 S         143.0075  141.0224  161.8469 S.2     1  UNL1       -0.0728
      6 C         143.2970  141.4013  160.4248 C.ar    1  UNL1        0.0210
      7 C         142.5691  142.6788  160.1279 C.ar    1  UNL1       -0.0126
      8 C         141.8296  143.0895  161.3667 C.ar    1  UNL1        0.0545
      9 C         140.9445  144.2634  161.6646 C.ar    1  UNL1        0.1717
     10 N         140.4996  145.4236  160.8244 N.ar    1  UNL1       -0.2032
     11 C         139.6105  146.2908  161.6654 C.ar    1  UNL1        0.2214
     12 N         139.5059  145.6666  163.0254 N.ar    1  UNL1       -0.1372
     13 N         140.3304  144.4135  163.0248 N.ar    1  UNL1       -0.1606
     14 C         142.6736  143.3031  158.7680 C.3     1  UNL1        0.0441
     15 C         143.5061  142.6498  157.7049 C.3     1  UNL1        0.0771
     16 N         144.2340  141.3723  158.0017 N.3     1  UNL1       -0.2682
     17 C         144.1295  140.7480  159.3616 C.3     1  UNL1        0.1054
     18 C         141.7573  141.1923  164.8518 C.3     1  UNL1        0.1378
     19 C         140.6276  140.3884  165.4240 C.ar    1  UNL1        0.0006
     20 C         140.3392  140.4413  166.8951 C.ar    1  UNL1       -0.0015
     21 C         139.2095  139.6374  167.4673 C.ar    1  UNL1        0.0111
     22 C         138.3682  138.7805  166.5684 C.ar    1  UNL1        0.0577
     23 CL        137.2385  137.9765  167.1407 Cl      1  UNL1       -0.0822
     24 C         138.6566  138.7275  165.0975 C.ar    1  UNL1        0.0111
     25 C         139.7863  139.5315  164.5252 C.ar    1  UNL1       -0.0015
     26 C         145.0665  140.7191  156.9385 C.3     1  UNL1        0.0724
     27 C         146.0751  141.5250  156.1750 C.3     1  UNL1        0.0160
     28 C         146.4708  142.2755  154.9379 C.3     1  UNL1        0.0014
     29 C         147.4264  142.1704  156.0894 C.3     1  UNL1        0.0014
@<TRIPOS>BOND
     1     1     2    2
     2     2     3   ar
     3     3    18    1
     4    18    19    1
     5    19    20   ar
     6    20    21   ar
     7    21    22   ar
     8    22    23    1
     9    22    24   ar
    10    24    25   ar
    11     3     4   ar
    12     4     5   ar
    13     5     6   ar
    14     6     7   ar
    15     7     8   ar
    16     8     9   ar
    17     9    10   ar
    18    10    11   ar
    19    11    12   ar
    20    12    13   ar
    21     7    14    1
    22    14    15    1
    23    15    16    1
    24    16    26    1
    25    26    27    1
    26    27    28    1
    27    28    29    1
    28    16    17    1
    29    13     2   ar
    30    29    27    1
    31    25    19   ar
    32     8     4   ar
    33    13     9   ar
    34    17     6    1
