@<TRIPOS>MOLECULE
*****
 32 35 0 0 0
SMALL
GASTEIGER

@<TRIPOS>ATOM
      1 C         144.1825  139.3732  162.9492 C.ar    1  UNL1        0.1491
      2 N         144.3700  139.5634  161.4732 N.ar    1  UNL1       -0.1977
      3 C         143.4021  138.9453  160.5084 C.ar    1  UNL1        0.2149
      4 N         143.5898  139.1355  159.0323 N.pl3   1  UNL1       -0.3274
      5 N         142.2465  138.1369  161.0195 N.ar    1  UNL1       -0.2124
      6 C         142.0590  137.9467  162.4955 C.ar    1  UNL1        0.1041
      7 C         141.0223  137.2074  163.2885 C.ar    1  UNL1        0.0394
      8 C         141.3496  137.3686  164.7434 C.ar    1  UNL1        0.0779
      9 N         142.5885  138.2076  164.8497 N.ar    1  UNL1       -0.3169
     10 C         143.0269  138.5649  163.4604 C.ar    1  UNL1        0.1101
     11 H         144.3482  139.6661  158.6968 H       1  UNL1        0.1452
     12 H         142.9545  138.7298  158.3990 H       1  UNL1        0.1452
     13 N         145.1504  139.9914  163.9141 N.pl3   1  UNL1       -0.3119
     14 H         145.3909  139.5165  164.7423 H       1  UNL1        0.1486
     15 C         145.7519  141.3330  163.6171 C.3     1  UNL1        0.1383
     16 C         142.3134  145.3341  163.8367 C.3     1  UNL1        0.0754
     17 C         143.2891  144.3182  163.3208 C.ar    1  UNL1        0.1546
     18 C         143.9906  143.2748  164.1387 C.ar    1  UNL1        0.0553
     19 C         144.8695  142.4792  163.2199 C.ar    1  UNL1        0.1201
     20 N         144.7113  143.0309  161.8341 N.ar    1  UNL1       -0.0800
     21 O         143.7345  144.1675  161.8965 O.2     1  UNL1       -0.3580
     22 C         143.2694  138.6173  166.1219 C.3     1  UNL1        0.1519
     23 C         142.7487  139.7828  166.9096 C.ar    1  UNL1        0.0818
     24 C         142.0934  140.9324  166.2034 C.ar    1  UNL1        0.0166
     25 C         141.5726  142.0980  166.9910 C.ar    1  UNL1        0.0067
     26 C         141.7072  142.1138  168.4849 C.ar    1  UNL1        0.0905
     27 C         142.3626  140.9640  169.1910 C.ar    1  UNL1        0.1023
     28 N         142.8833  139.7986  168.4034 N.ar    1  UNL1       -0.2463
     29 C         141.1865  143.2793  169.2726 C.3     1  UNL1        0.4200
     30 F         140.6657  144.4448  170.0603 F       1  UNL1       -0.1658
     31 F         140.1227  143.5026  168.2389 F       1  UNL1       -0.1658
     32 F         142.2502  143.0560  170.3062 F       1  UNL1       -0.1658
@<TRIPOS>BOND
     1    16    17    1
     2    17    18   ar
     3    18    19   ar
     4    19    15    1
     5    15    13    1
     6    13     1    1
     7     1     2   ar
     8     2     3   ar
     9     3     4    1
    10     3     5   ar
    11     5     6   ar
    12     6     7   ar
    13     7     8   ar
    14     8     9   ar
    15     9    22    1
    16    22    23    1
    17    23    24   ar
    18    24    25   ar
    19    25    26   ar
    20    26    29    1
    21    29    30    1
    22    29    31    1
    23    29    32    1
    24    26    27   ar
    25    27    28   ar
    26     9    10   ar
    27    19    20   ar
    28    20    21   ar
    29    21    17   ar
    30    10     1   ar
    31    10     6   ar
    32    28    23   ar
    33    13    14    1
    34     4    11    1
    35     4    12    1
@<TRIPOS>MOLECULE
*****
 32 35 0 0 0
SMALL
GASTEIGER

@<TRIPOS>ATOM
      1 C         142.3695  138.0959  162.1672 C.ar    1  UNL1        0.1491
      2 N         142.4074  137.9848  160.6718 N.ar    1  UNL1       -0.1977
      3 C         143.3557  138.8357  159.8803 C.ar    1  UNL1        0.2149
      4 N         143.3936  138.7246  158.3848 N.pl3   1  UNL1       -0.3274
      5 N         144.2663  139.7978  160.5842 N.ar    1  UNL1       -0.2124
      6 C         144.2284  139.9088  162.0795 C.ar    1  UNL1        0.1041
      7 C         145.0007  140.7610  163.0425 C.ar    1  UNL1        0.0394
      8 C         144.5296  140.4368  164.4292 C.ar    1  UNL1        0.0779
      9 N         143.4662  139.3842  164.3233 N.ar    1  UNL1       -0.3169
     10 C         143.2801  139.0579  162.8710 C.ar    1  UNL1        0.1101
     11 H         142.7960  138.0932  157.9228 H       1  UNL1        0.1452
     12 H         144.0160  139.2831  157.8653 H       1  UNL1        0.1452
     13 N         141.4211  137.2449  162.9587 N.pl3   1  UNL1       -0.3119
     14 H         141.7701  136.5507  163.5633 H       1  UNL1        0.1486
     15 C         139.9411  137.4517  162.8289 C.3     1  UNL1        0.1383
     16 C         137.6266  138.6606  167.4184 C.3     1  UNL1        0.0754
     17 C         138.1268  138.7459  166.0067 C.ar    1  UNL1        0.1546
     18 C         138.8968  137.6845  165.2785 C.ar    1  UNL1        0.0553
     19 C         139.1906  138.1902  163.8973 C.ar    1  UNL1        0.1201
     20 N         138.6021  139.5642  163.7718 N.ar    1  UNL1       -0.0800
     21 O         137.9446  139.9076  165.0756 O.2     1  UNL1       -0.3580
     22 C         142.7199  138.7664  165.4684 C.3     1  UNL1        0.1519
     23 C         142.0727  139.6410  166.5010 C.ar    1  UNL1        0.0818
     24 C         141.1507  140.7455  166.0769 C.ar    1  UNL1        0.0166
     25 C         140.5034  141.6202  167.1093 C.ar    1  UNL1        0.0067
     26 C         140.7783  141.3903  168.5660 C.ar    1  UNL1        0.0905
     27 C         141.7004  140.2858  168.9900 C.ar    1  UNL1        0.1023
     28 N         142.3476  139.4112  167.9575 N.ar    1  UNL1       -0.2463
     29 C         140.1311  142.2650  169.5985 C.3     1  UNL1        0.4200
     30 F         139.4839  143.1396  170.6310 F       1  UNL1       -0.1658
     31 F         139.0903  141.2117  169.8383 F       1  UNL1       -0.1658
     32 F         141.1718  143.3181  169.3587 F       1  UNL1       -0.1658
@<TRIPOS>BOND
     1    16    17    1
     2    17    18   ar
     3    18    19   ar
     4    19    15    1
     5    15    13    1
     6    13     1    1
     7     1     2   ar
     8     2     3   ar
     9     3     4    1
    10     3     5   ar
    11     5     6   ar
    12     6     7   ar
    13     7     8   ar
    14     8     9   ar
    15     9    22    1
    16    22    23    1
    17    23    24   ar
    18    24    25   ar
    19    25    26   ar
    20    26    29    1
    21    29    30    1
    22    29    31    1
    23    29    32    1
    24    26    27   ar
    25    27    28   ar
    26     9    10   ar
    27    19    20   ar
    28    20    21   ar
    29    21    17   ar
    30    10     1   ar
    31    10     6   ar
    32    28    23   ar
    33    13    14    1
    34     4    11    1
    35     4    12    1
@<TRIPOS>MOLECULE
*****
 32 35 0 0 0
SMALL
GASTEIGER

@<TRIPOS>ATOM
      1 C         137.8326  140.2220  162.6846 C.ar    1  UNL1        0.1491
      2 N         137.7545  140.3838  161.1954 N.ar    1  UNL1       -0.1977
      3 C         138.5695  139.4975  160.3009 C.ar    1  UNL1        0.2149
      4 N         138.4914  139.6594  158.8117 N.pl3   1  UNL1       -0.3274
      5 N         139.4627  138.4493  160.8956 N.ar    1  UNL1       -0.2124
      6 C         139.5408  138.2875  162.3848 C.ar    1  UNL1        0.1041
      7 C         140.3260  137.3492  163.2526 C.ar    1  UNL1        0.0394
      8 C         139.9962  137.6556  164.6834 C.ar    1  UNL1        0.0779
      9 N         139.0072  138.7833  164.6999 N.ar    1  UNL1       -0.3169
     10 C         138.7257  139.1738  163.2793 C.ar    1  UNL1        0.1101
     11 H         137.9052  140.3473  158.4214 H       1  UNL1        0.1452
     12 H         139.0263  139.0777  158.2246 H       1  UNL1        0.1452
     13 N         137.0175  141.1083  163.5791 N.pl3   1  UNL1       -0.3119
     14 H         136.0894  140.8651  163.7999 H       1  UNL1        0.1486
     15 C         137.6165  142.3651  164.1373 C.3     1  UNL1        0.1383
     16 C         141.6029  144.6259  161.5145 C.3     1  UNL1        0.0754
     17 C         140.2311  144.3224  162.0401 C.ar    1  UNL1        0.1546
     18 C         139.8756  143.2182  162.9910 C.ar    1  UNL1        0.0553
     19 C         138.3989  143.2833  163.2456 C.ar    1  UNL1        0.1201
     20 N         137.8416  144.4277  162.4520 N.ar    1  UNL1       -0.0800
     21 O         138.9741  145.0699  161.7070 O.2     1  UNL1       -0.3580
     22 C         138.4053  139.4103  165.9225 C.3     1  UNL1        0.1519
     23 C         139.2560  140.2449  166.8335 C.ar    1  UNL1        0.0818
     24 C         140.0397  141.3979  166.2801 C.ar    1  UNL1        0.0166
     25 C         140.8904  142.2325  167.1910 C.ar    1  UNL1        0.0067
     26 C         140.9573  141.9140  168.6554 C.ar    1  UNL1        0.0905
     27 C         140.1735  140.7609  169.2086 C.ar    1  UNL1        0.1023
     28 N         139.3229  139.9264  168.2977 N.ar    1  UNL1       -0.2463
     29 C         141.8079  142.7486  169.5663 C.3     1  UNL1        0.4200
     30 F         142.6586  143.5832  170.4773 F       1  UNL1       -0.1658
     31 F         142.8357  141.6568  169.6069 F       1  UNL1       -0.1658
     32 F         140.7803  143.8404  169.5258 F       1  UNL1       -0.1658
@<TRIPOS>BOND
     1    16    17    1
     2    17    18   ar
     3    18    19   ar
     4    19    15    1
     5    15    13    1
     6    13     1    1
     7     1     2   ar
     8     2     3   ar
     9     3     4    1
    10     3     5   ar
    11     5     6   ar
    12     6     7   ar
    13     7     8   ar
    14     8     9   ar
    15     9    22    1
    16    22    23    1
    17    23    24   ar
    18    24    25   ar
    19    25    26   ar
    20    26    29    1
    21    29    30    1
    22    29    31    1
    23    29    32    1
    24    26    27   ar
    25    27    28   ar
    26     9    10   ar
    27    19    20   ar
    28    20    21   ar
    29    21    17   ar
    30    10     1   ar
    31    10     6   ar
    32    28    23   ar
    33    13    14    1
    34     4    11    1
    35     4    12    1
@<TRIPOS>MOLECULE
*****
 32 35 0 0 0
SMALL
GASTEIGER

@<TRIPOS>ATOM
      1 C         137.8276  141.0603  162.8723 C.ar    1  UNL1        0.1491
      2 N         137.5698  141.2064  161.4019 N.ar    1  UNL1       -0.1977
      3 C         137.7697  140.0359  160.4855 C.ar    1  UNL1        0.2149
      4 N         137.5119  140.1820  159.0150 N.pl3   1  UNL1       -0.3274
      5 N         138.2273  138.7191  161.0395 N.ar    1  UNL1       -0.2124
      6 C         138.4850  138.5730  162.5099 C.ar    1  UNL1        0.1041
      7 C         138.9396  137.4081  163.3383 C.ar    1  UNL1        0.0394
      8 C         139.0207  137.8587  164.7667 C.ar    1  UNL1        0.0779
      9 N         138.6162  139.3022  164.8211 N.ar    1  UNL1       -0.3169
     10 C         138.2852  139.7436  163.4263 C.ar    1  UNL1        0.1101
     11 H         137.2115  141.0462  158.6513 H       1  UNL1        0.1452
     12 H         137.6430  139.4137  158.4135 H       1  UNL1        0.1452
     13 N         137.6277  142.2309  163.7887 N.pl3   1  UNL1       -0.3119
     14 H         137.5231  142.0859  164.7568 H       1  UNL1        0.1486
     15 C         137.5873  143.6224  163.2301 C.3     1  UNL1        0.1383
     16 C         142.5656  145.3027  163.7542 C.3     1  UNL1        0.0754
     17 C         141.1493  145.1635  163.2798 C.ar    1  UNL1        0.1546
     18 C         140.1406  144.1786  163.7923 C.ar    1  UNL1        0.0553
     19 C         138.8612  144.3911  163.0390 C.ar    1  UNL1        0.1201
     20 N         139.0790  145.5073  162.0609 N.ar    1  UNL1       -0.0800
     21 O         140.4932  145.9846  162.2098 O.2     1  UNL1       -0.3580
     22 C         138.5538  140.1544  166.0539 C.3     1  UNL1        0.1519
     23 C         139.5992  140.0093  167.1198 C.ar    1  UNL1        0.0818
     24 C         141.0418  139.8544  166.7393 C.ar    1  UNL1        0.0166
     25 C         142.0872  139.7092  167.8051 C.ar    1  UNL1        0.0067
     26 C         141.6899  139.7189  169.2516 C.ar    1  UNL1        0.0905
     27 C         140.2472  139.8737  169.6321 C.ar    1  UNL1        0.1023
     28 N         139.2019  140.0189  168.5662 N.ar    1  UNL1       -0.2463
     29 C         142.7352  139.5737  170.3175 C.3     1  UNL1        0.4200
     30 F         143.7806  139.4286  171.3834 F       1  UNL1       -0.1658
     31 F         142.6405  141.0418  170.6103 F       1  UNL1       -0.1658
     32 F         142.8299  138.1057  170.0247 F       1  UNL1       -0.1658
@<TRIPOS>BOND
     1    16    17    1
     2    17    18   ar
     3    18    19   ar
     4    19    15    1
     5    15    13    1
     6    13     1    1
     7     1     2   ar
     8     2     3   ar
     9     3     4    1
    10     3     5   ar
    11     5     6   ar
    12     6     7   ar
    13     7     8   ar
    14     8     9   ar
    15     9    22    1
    16    22    23    1
    17    23    24   ar
    18    24    25   ar
    19    25    26   ar
    20    26    29    1
    21    29    30    1
    22    29    31    1
    23    29    32    1
    24    26    27   ar
    25    27    28   ar
    26     9    10   ar
    27    19    20   ar
    28    20    21   ar
    29    21    17   ar
    30    10     1   ar
    31    10     6   ar
    32    28    23   ar
    33    13    14    1
    34     4    11    1
    35     4    12    1
@<TRIPOS>MOLECULE
*****
 32 35 0 0 0
SMALL
GASTEIGER

@<TRIPOS>ATOM
      1 C         142.2063  143.6135  161.8276 C.ar    1  UNL1        0.1491
      2 N         142.5500  144.0605  160.4376 N.ar    1  UNL1       -0.1977
      3 C         141.6453  145.0100  159.7099 C.ar    1  UNL1        0.2149
      4 N         141.9890  145.4570  158.3198 N.pl3   1  UNL1       -0.3274
      5 N         140.3967  145.5127  160.3721 N.ar    1  UNL1       -0.2124
      6 C         140.0530  145.0657  161.7621 C.ar    1  UNL1        0.1041
      7 C         138.8991  145.3898  162.6640 C.ar    1  UNL1        0.0394
      8 C         139.0907  144.6404  163.9492 C.ar    1  UNL1        0.0779
      9 N         140.3631  143.8532  163.8416 N.ar    1  UNL1       -0.3169
     10 C         140.9578  144.1161  162.4898 C.ar    1  UNL1        0.1101
     11 H         142.8085  145.1271  157.8852 H       1  UNL1        0.1452
     12 H         141.3952  146.0803  157.8422 H       1  UNL1        0.1452
     13 N         143.1111  142.6639  162.5553 N.pl3   1  UNL1       -0.3119
     14 H         143.6913  142.9938  163.2790 H       1  UNL1        0.1486
     15 C         143.1319  141.2116  162.1803 C.3     1  UNL1        0.1383
     16 C         143.4320  138.3763  166.6247 C.3     1  UNL1        0.0754
     17 C         143.0180  138.8607  165.2667 C.ar    1  UNL1        0.1546
     18 C         143.5823  140.0481  164.5443 C.ar    1  UNL1        0.0553
     19 C         142.8801  140.1640  163.2239 C.ar    1  UNL1        0.1201
     20 N         141.8819  139.0483  163.1302 N.ar    1  UNL1       -0.0800
     21 O         141.9672  138.2429  164.3928 O.2     1  UNL1       -0.3580
     22 C         140.9395  142.9600  164.8998 C.3     1  UNL1        0.1519
     23 C         140.2256  141.6990  165.2874 C.ar    1  UNL1        0.0818
     24 C         140.4181  141.1190  166.6572 C.ar    1  UNL1        0.0166
     25 C         139.7043  139.8579  167.0448 C.ar    1  UNL1        0.0067
     26 C         138.7980  139.1769  166.0624 C.ar    1  UNL1        0.0905
     27 C         138.6056  139.7570  164.6926 C.ar    1  UNL1        0.1023
     28 N         139.3194  141.0180  164.3051 N.ar    1  UNL1       -0.2463
     29 C         138.0841  137.9158  166.4499 C.3     1  UNL1        0.4200
     30 F         137.3703  136.6548  166.8374 F       1  UNL1       -0.1658
     31 F         137.3363  138.6656  167.5123 F       1  UNL1       -0.1658
     32 F         138.8319  137.1661  165.3876 F       1  UNL1       -0.1658
@<TRIPOS>BOND
     1    16    17    1
     2    17    18   ar
     3    18    19   ar
     4    19    15    1
     5    15    13    1
     6    13     1    1
     7     1     2   ar
     8     2     3   ar
     9     3     4    1
    10     3     5   ar
    11     5     6   ar
    12     6     7   ar
    13     7     8   ar
    14     8     9   ar
    15     9    22    1
    16    22    23    1
    17    23    24   ar
    18    24    25   ar
    19    25    26   ar
    20    26    29    1
    21    29    30    1
    22    29    31    1
    23    29    32    1
    24    26    27   ar
    25    27    28   ar
    26     9    10   ar
    27    19    20   ar
    28    20    21   ar
    29    21    17   ar
    30    10     1   ar
    31    10     6   ar
    32    28    23   ar
    33    13    14    1
    34     4    11    1
    35     4    12    1
@<TRIPOS>MOLECULE
*****
 32 35 0 0 0
SMALL
GASTEIGER

@<TRIPOS>ATOM
      1 C         140.9697  141.8242  160.5361 C.ar    1  UNL1        0.1491
      2 N         140.8176  143.2235  160.0176 N.ar    1  UNL1       -0.1977
      3 C         141.9752  144.1754  160.0770 C.ar    1  UNL1        0.2149
      4 N         141.8230  145.5747  159.5584 N.pl3   1  UNL1       -0.3274
      5 N         143.2852  143.7280  160.6549 N.ar    1  UNL1       -0.2124
      6 C         143.4373  142.3288  161.1734 C.ar    1  UNL1        0.1041
      7 C         144.5979  141.6090  161.7939 C.ar    1  UNL1        0.0394
      8 C         144.1575  140.2122  162.1179 C.ar    1  UNL1        0.0779
      9 N         142.7247  140.0687  161.6977 N.ar    1  UNL1       -0.3169
     10 C         142.2796  141.3769  161.1140 C.ar    1  UNL1        0.1101
     11 H         140.9633  145.8683  159.1791 H       1  UNL1        0.1452
     12 H         142.5829  146.1995  159.5974 H       1  UNL1        0.1452
     13 N         139.8120  140.8723  160.4767 N.pl3   1  UNL1       -0.3119
     14 H         139.7677  140.1951  159.7635 H       1  UNL1        0.1486
     15 C         138.7218  140.9523  161.5038 C.3     1  UNL1        0.1383
     16 C         138.3779  144.6552  165.2524 C.3     1  UNL1        0.0754
     17 C         138.2906  143.9502  163.9312 C.ar    1  UNL1        0.1546
     18 C         138.7124  142.5372  163.6562 C.ar    1  UNL1        0.0553
     19 C         138.4487  142.2482  162.2082 C.ar    1  UNL1        0.1201
     20 N         137.8640  143.4825  161.5882 N.ar    1  UNL1       -0.0800
     21 O         137.7663  144.5344  162.6531 O.2     1  UNL1       -0.3580
     22 C         141.8845  138.8339  161.8369 C.3     1  UNL1        0.1519
     23 C         140.9176  138.7092  162.9768 C.ar    1  UNL1        0.0818
     24 C         139.8421  137.6645  162.9370 C.ar    1  UNL1        0.0166
     25 C         138.8751  137.5396  164.0769 C.ar    1  UNL1        0.0067
     26 C         138.9838  138.4597  165.2567 C.ar    1  UNL1        0.0905
     27 C         140.0594  139.5045  165.2964 C.ar    1  UNL1        0.1023
     28 N         141.0262  139.6292  164.1565 N.ar    1  UNL1       -0.2463
     29 C         138.0168  138.3349  166.3967 C.3     1  UNL1        0.4200
     30 F         137.0499  138.2102  167.5366 F       1  UNL1       -0.1658
     31 F         138.0234  139.8254  166.5654 F       1  UNL1       -0.1658
     32 F         138.0102  136.8446  166.2279 F       1  UNL1       -0.1658
@<TRIPOS>BOND
     1    16    17    1
     2    17    18   ar
     3    18    19   ar
     4    19    15    1
     5    15    13    1
     6    13     1    1
     7     1     2   ar
     8     2     3   ar
     9     3     4    1
    10     3     5   ar
    11     5     6   ar
    12     6     7   ar
    13     7     8   ar
    14     8     9   ar
    15     9    22    1
    16    22    23    1
    17    23    24   ar
    18    24    25   ar
    19    25    26   ar
    20    26    29    1
    21    29    30    1
    22    29    31    1
    23    29    32    1
    24    26    27   ar
    25    27    28   ar
    26     9    10   ar
    27    19    20   ar
    28    20    21   ar
    29    21    17   ar
    30    10     1   ar
    31    10     6   ar
    32    28    23   ar
    33    13    14    1
    34     4    11    1
    35     4    12    1
@<TRIPOS>MOLECULE
*****
 32 35 0 0 0
SMALL
GASTEIGER

@<TRIPOS>ATOM
      1 C         141.8495  142.3198  161.2773 C.ar    1  UNL1        0.1491
      2 N         143.1323  142.0971  160.5325 N.ar    1  UNL1       -0.1977
      3 C         144.3434  142.9181  160.8626 C.ar    1  UNL1        0.2149
      4 N         145.6263  142.6954  160.1177 N.pl3   1  UNL1       -0.3274
      5 N         144.2718  143.9619  161.9375 N.ar    1  UNL1       -0.2124
      6 C         142.9889  144.1846  162.6823 C.ar    1  UNL1        0.1041
      7 C         142.6195  145.1338  163.7835 C.ar    1  UNL1        0.0394
      8 C         141.1800  144.8993  164.1339 C.ar    1  UNL1        0.0779
      9 N         140.6598  143.8053  163.2494 N.ar    1  UNL1       -0.3169
     10 C         141.7778  143.3636  162.3522 C.ar    1  UNL1        0.1101
     11 H         145.6734  142.0103  159.4122 H       1  UNL1        0.1452
     12 H         146.4212  143.2343  160.3344 H       1  UNL1        0.1452
     13 N         140.6383  141.4987  160.9472 N.pl3   1  UNL1       -0.3119
     14 H         139.7480  141.9188  160.9321 H       1  UNL1        0.1486
     15 C         140.7836  140.0377  160.6401 C.3     1  UNL1        0.1383
     16 C         142.1944  137.9161  165.2650 C.3     1  UNL1        0.0754
     17 C         141.6445  138.0797  163.8789 C.ar    1  UNL1        0.1546
     18 C         141.6411  139.3464  163.0756 C.ar    1  UNL1        0.0553
     19 C         140.9961  139.0549  161.7532 C.ar    1  UNL1        0.1201
     20 N         140.6007  137.6080  161.7392 N.ar    1  UNL1       -0.0800
     21 O         141.0015  137.0053  163.0530 O.2     1  UNL1       -0.3580
     22 C         139.2662  143.2504  163.2601 C.3     1  UNL1        0.1519
     23 C         138.9784  141.9594  163.9676 C.ar    1  UNL1        0.0818
     24 C         139.3697  141.7888  165.4055 C.ar    1  UNL1        0.0166
     25 C         139.0819  140.4978  166.1130 C.ar    1  UNL1        0.0067
     26 C         138.4028  139.3774  165.3825 C.ar    1  UNL1        0.0905
     27 C         138.0115  139.5481  163.9445 C.ar    1  UNL1        0.1023
     28 N         138.2993  140.8390  163.2371 N.ar    1  UNL1       -0.2463
     29 C         138.1150  138.0864  166.0900 C.3     1  UNL1        0.4200
     30 F         137.8271  136.7954  166.7974 F       1  UNL1       -0.1658
     31 F         137.6474  138.8502  167.2934 F       1  UNL1       -0.1658
     32 F         138.5825  137.3228  164.8866 F       1  UNL1       -0.1658
@<TRIPOS>BOND
     1    16    17    1
     2    17    18   ar
     3    18    19   ar
     4    19    15    1
     5    15    13    1
     6    13     1    1
     7     1     2   ar
     8     2     3   ar
     9     3     4    1
    10     3     5   ar
    11     5     6   ar
    12     6     7   ar
    13     7     8   ar
    14     8     9   ar
    15     9    22    1
    16    22    23    1
    17    23    24   ar
    18    24    25   ar
    19    25    26   ar
    20    26    29    1
    21    29    30    1
    22    29    31    1
    23    29    32    1
    24    26    27   ar
    25    27    28   ar
    26     9    10   ar
    27    19    20   ar
    28    20    21   ar
    29    21    17   ar
    30    10     1   ar
    31    10     6   ar
    32    28    23   ar
    33    13    14    1
    34     4    11    1
    35     4    12    1
@<TRIPOS>MOLECULE
*****
 32 35 0 0 0
SMALL
GASTEIGER

@<TRIPOS>ATOM
      1 C         140.2599  144.8556  161.7356 C.ar    1  UNL1        0.1491
      2 N         139.8757  145.5246  160.4492 N.ar    1  UNL1       -0.1977
      3 C         140.7585  145.3950  159.2436 C.ar    1  UNL1        0.2149
      4 N         140.3743  146.0641  157.9572 N.pl3   1  UNL1       -0.3274
      5 N         142.0258  144.5964  159.3242 N.ar    1  UNL1       -0.2124
      6 C         142.4100  143.9274  160.6106 C.ar    1  UNL1        0.1041
      7 C         143.5897  143.0815  160.9886 C.ar    1  UNL1        0.0394
      8 C         143.4358  142.6883  162.4279 C.ar    1  UNL1        0.0779
      9 N         142.1611  143.2911  162.9395 N.ar    1  UNL1       -0.3169
     10 C         141.5271  144.0570  161.8163 C.ar    1  UNL1        0.1101
     11 H         139.5426  146.5883  157.9042 H       1  UNL1        0.1452
     12 H         140.9537  145.9791  157.1658 H       1  UNL1        0.1452
     13 N         139.3770  144.9851  162.9413 N.pl3   1  UNL1       -0.3119
     14 H         139.7058  145.4497  163.7445 H       1  UNL1        0.1486
     15 C         137.9931  144.4068  162.9231 C.3     1  UNL1        0.1383
     16 C         137.8457  139.6846  160.5650 C.3     1  UNL1        0.0754
     17 C         137.7287  140.7695  161.5943 C.ar    1  UNL1        0.1546
     18 C         138.0609  142.2180  161.3903 C.ar    1  UNL1        0.0553
     19 C         137.7964  142.9400  162.6781 C.ar    1  UNL1        0.1201
     20 N         137.3007  141.9379  163.6781 N.ar    1  UNL1       -0.0800
     21 O         137.2588  140.5965  163.0082 O.2     1  UNL1       -0.3580
     22 C         141.6161  143.1525  164.3300 C.3     1  UNL1        0.1519
     23 C         140.8642  141.9148  164.7210 C.ar    1  UNL1        0.0818
     24 C         140.1053  141.8754  166.0142 C.ar    1  UNL1        0.0166
     25 C         139.3533  140.6378  166.4052 C.ar    1  UNL1        0.0067
     26 C         139.3604  139.4395  165.5028 C.ar    1  UNL1        0.0905
     27 C         140.1193  139.4790  164.2096 C.ar    1  UNL1        0.1023
     28 N         140.8712  140.7166  163.8187 N.ar    1  UNL1       -0.2463
     29 C         138.6085  138.2018  165.8937 C.3     1  UNL1        0.4200
     30 F         137.8566  136.9642  166.2847 F       1  UNL1       -0.1658
     31 F         137.6691  139.0325  166.7169 F       1  UNL1       -0.1658
     32 F         139.5478  137.3712  165.0707 F       1  UNL1       -0.1658
@<TRIPOS>BOND
     1    16    17    1
     2    17    18   ar
     3    18    19   ar
     4    19    15    1
     5    15    13    1
     6    13     1    1
     7     1     2   ar
     8     2     3   ar
     9     3     4    1
    10     3     5   ar
    11     5     6   ar
    12     6     7   ar
    13     7     8   ar
    14     8     9   ar
    15     9    22    1
    16    22    23    1
    17    23    24   ar
    18    24    25   ar
    19    25    26   ar
    20    26    29    1
    21    29    30    1
    22    29    31    1
    23    29    32    1
    24    26    27   ar
    25    27    28   ar
    26     9    10   ar
    27    19    20   ar
    28    20    21   ar
    29    21    17   ar
    30    10     1   ar
    31    10     6   ar
    32    28    23   ar
    33    13    14    1
    34     4    11    1
    35     4    12    1
@<TRIPOS>MOLECULE
*****
 32 35 0 0 0
SMALL
GASTEIGER

@<TRIPOS>ATOM
      1 C         141.5010  144.5037  162.6129 C.ar    1  UNL1        0.1491
      2 N         141.8804  145.0230  161.2578 N.ar    1  UNL1       -0.1977
      3 C         140.9037  144.9404  160.1225 C.ar    1  UNL1        0.2149
      4 N         141.2833  145.4597  158.7673 N.pl3   1  UNL1       -0.3274
      5 N         139.5474  144.3384  160.3421 N.ar    1  UNL1       -0.2124
      6 C         139.1680  143.8191  161.6972 C.ar    1  UNL1        0.1041
      7 C         137.9130  143.1779  162.2110 C.ar    1  UNL1        0.0394
      8 C         138.1142  142.8643  163.6640 C.ar    1  UNL1        0.0779
      9 N         139.4935  143.3116  164.0482 N.ar    1  UNL1       -0.3169
     10 C         140.1447  143.9018  162.8326 C.ar    1  UNL1        0.1101
     11 H         142.1734  145.8548  158.6231 H       1  UNL1        0.1452
     12 H         140.6422  145.4055  158.0221 H       1  UNL1        0.1452
     13 N         142.4777  144.5863  163.7483 N.pl3   1  UNL1       -0.3119
     14 H         142.1752  144.8816  164.6374 H       1  UNL1        0.1486
     15 C         143.9155  144.2192  163.5290 C.3     1  UNL1        0.1383
     16 C         144.0234  139.1343  162.1099 C.3     1  UNL1        0.0754
     17 C         144.3624  140.4397  162.7665 C.ar    1  UNL1        0.1546
     18 C         143.6373  141.7385  162.5730 C.ar    1  UNL1        0.0553
     19 C         144.3127  142.7769  163.4188 C.ar    1  UNL1        0.1201
     20 N         145.4552  142.1200  164.1351 N.ar    1  UNL1       -0.0800
     21 O         145.4859  140.6755  163.7319 O.2     1  UNL1       -0.3580
     22 C         140.1127  143.1902  165.4090 C.3     1  UNL1        0.1519
     23 C         140.9615  141.9994  165.7432 C.ar    1  UNL1        0.0818
     24 C         142.3096  142.1922  166.3718 C.ar    1  UNL1        0.0166
     25 C         143.1585  141.0015  166.7061 C.ar    1  UNL1        0.0067
     26 C         142.6591  139.6180  166.4116 C.ar    1  UNL1        0.0905
     27 C         141.3109  139.4253  165.7829 C.ar    1  UNL1        0.1023
     28 N         140.4621  140.6160  165.4487 N.ar    1  UNL1       -0.2463
     29 C         143.5079  138.4273  166.7458 C.3     1  UNL1        0.4200
     30 F         144.3567  137.2365  167.0800 F       1  UNL1       -0.1658
     31 F         143.0176  138.4754  168.1626 F       1  UNL1       -0.1658
     32 F         143.9982  138.3791  165.3291 F       1  UNL1       -0.1658
@<TRIPOS>BOND
     1    16    17    1
     2    17    18   ar
     3    18    19   ar
     4    19    15    1
     5    15    13    1
     6    13     1    1
     7     1     2   ar
     8     2     3   ar
     9     3     4    1
    10     3     5   ar
    11     5     6   ar
    12     6     7   ar
    13     7     8   ar
    14     8     9   ar
    15     9    22    1
    16    22    23    1
    17    23    24   ar
    18    24    25   ar
    19    25    26   ar
    20    26    29    1
    21    29    30    1
    22    29    31    1
    23    29    32    1
    24    26    27   ar
    25    27    28   ar
    26     9    10   ar
    27    19    20   ar
    28    20    21   ar
    29    21    17   ar
    30    10     1   ar
    31    10     6   ar
    32    28    23   ar
    33    13    14    1
    34     4    11    1
    35     4    12    1
