@<TRIPOS>MOLECULE
*****
 35 39 0 0 0
SMALL
GASTEIGER

@<TRIPOS>ATOM
      1 C         139.2861  140.0079  163.0287 C.ar    1  UNL1        0.0878
      2 C         138.7859  138.9411  163.9569 C.ar    1  UNL1        0.1543
      3 F         138.1537  137.6995  163.4013 F       1  UNL1       -0.2028
      4 C         138.9179  139.1159  165.4408 C.ar    1  UNL1        0.0356
      5 C         139.5501  140.3575  165.9965 C.ar    1  UNL1        0.0580
      6 C         139.6821  140.5322  167.4805 C.ar    1  UNL1        0.1996
      7 O         139.1819  139.4654  168.4087 O.2     1  UNL1       -0.2864
      8 C         140.3144  141.7738  168.0361 C.ar    1  UNL1        0.0701
      9 C         140.8146  142.8406  167.1078 C.ar    1  UNL1        0.0801
     10 N         140.6826  142.6658  165.6239 N.ar    1  UNL1       -0.3270
     11 C         140.0504  141.4242  165.0683 C.ar    1  UNL1        0.0750
     12 C         139.9184  141.2495  163.5844 C.ar    1  UNL1        0.0890
     13 CL        140.4186  142.3163  162.6560 Cl      1  UNL1       -0.0794
     14 C         138.3213  139.9716  159.2692 C.3     1  UNL1        0.0929
     15 C         139.5807  139.1568  159.2532 C.3     1  UNL1        0.0427
     16 C         140.0954  139.0713  160.6595 C.3     1  UNL1        0.0927
     17 N         139.1542  139.8331  161.5447 N.pl3   1  UNL1       -0.3033
     18 C         138.0578  140.3896  160.6855 C.3     1  UNL1        0.1104
     19 O         138.4778  142.7055  158.0438 O.2     1  UNL1       -0.2750
     20 C         137.5525  141.6761  157.4654 C.2     1  UNL1        0.2246
     21 N         137.4743  140.3092  158.0782 N.am    1  UNL1       -0.3042
     22 H         136.8671  139.6336  157.6986 H       1  UNL1        0.1494
     23 C         136.7055  142.0137  156.2743 C.3     1  UNL1        0.1132
     24 C         135.9000  140.9434  155.5993 C.3     1  UNL1        0.1591
     25 N         134.5588  140.5557  156.1478 N.ar    1  UNL1       -0.1697
     26 N         134.3138  139.6794  157.3402 N.ar    1  UNL1       -0.1490
     27 C         132.8307  139.5584  157.5296 C.ar    1  UNL1        0.1442
     28 C         132.1592  140.3600  156.4542 C.ar    1  UNL1        0.1442
     29 N         133.2272  140.9764  155.6003 N.ar    1  UNL1       -0.1490
     30 C         140.4464  141.9486  169.5200 C.2     1  UNL1        0.0774
     31 O         139.5832  142.9435  170.2377 O.co2   1  UNL1       -0.5444
     32 O         141.4416  141.1285  170.2863 O.co2   1  UNL1       -0.5444
     33 C         141.1829  143.7326  164.6957 C.3     1  UNL1        0.0857
     34 C         140.9154  144.9097  163.8052 C.3     1  UNL1        0.0245
     35 C         142.3167  144.4033  163.9784 C.3     1  UNL1        0.0245
@<TRIPOS>UNITY_ATOM_ATTR
31 1
charge -1
@<TRIPOS>BOND
     1    19    20    2
     2    20    23    1
     3    23    24    1
     4    24    25    1
     5    25    26   ar
     6    26    27   ar
     7    27    28   ar
     8    28    29   ar
     9    20    21   am
    10    21    14    1
    11    14    15    1
    12    15    16    1
    13    16    17    1
    14    17     1    1
    15     1     2   ar
    16     2     3    1
    17     2     4   ar
    18     4     5   ar
    19     5     6   ar
    20     6     7    2
    21     6     8   ar
    22     8    30    1
    23    30    31   ar
    24    30    32   ar
    25     8     9   ar
    26     9    10   ar
    27    10    33    1
    28    33    34    1
    29    34    35    1
    30    10    11   ar
    31    11    12   ar
    32    12    13    1
    33    17    18    1
    34    29    25   ar
    35    18    14    1
    36    12     1   ar
    37    11     5   ar
    38    35    33    1
    39    21    22    1
@<TRIPOS>MOLECULE
*****
 35 39 0 0 0
SMALL
GASTEIGER

@<TRIPOS>ATOM
      1 C         139.8697  139.5928  162.8130 C.ar    1  UNL1        0.0878
      2 C         138.7106  138.8163  163.3641 C.ar    1  UNL1        0.1543
      3 F         137.8072  138.0582  162.4373 F       1  UNL1       -0.2028
      4 C         138.4551  138.7980  164.8420 C.ar    1  UNL1        0.0356
      5 C         139.3586  139.5562  165.7688 C.ar    1  UNL1        0.0580
      6 C         139.1030  139.5378  167.2468 C.ar    1  UNL1        0.1996
      7 O         137.9440  138.7614  167.7980 O.2     1  UNL1       -0.2864
      8 C         140.0065  140.2960  168.1736 C.ar    1  UNL1        0.0701
      9 C         141.1656  141.0724  167.6224 C.ar    1  UNL1        0.0801
     10 N         141.4211  141.0907  166.1445 N.ar    1  UNL1       -0.3270
     11 C         140.5176  140.3326  165.2177 C.ar    1  UNL1        0.0750
     12 C         140.7731  140.3509  163.7398 C.ar    1  UNL1        0.0890
     13 CL        141.9322  141.1274  163.1886 Cl      1  UNL1       -0.0794
     14 C         140.9565  139.0342  159.1289 C.3     1  UNL1        0.0929
     15 C         140.0807  140.2443  158.9924 C.3     1  UNL1        0.0427
     16 C         139.5669  140.6008  160.3559 C.3     1  UNL1        0.0927
     17 N         140.1252  139.6111  161.3350 N.pl3   1  UNL1       -0.3033
     18 C         140.9840  138.6429  160.5767 C.3     1  UNL1        0.1104
     19 O         139.4057  137.5260  157.0503 O.2     1  UNL1       -0.2750
     20 C         140.9027  137.5836  156.9741 C.2     1  UNL1        0.2246
     21 N         141.6781  138.3377  158.0134 N.am    1  UNL1       -0.3042
     22 H         142.6606  138.3755  157.9634 H       1  UNL1        0.1494
     23 C         141.6242  136.8871  155.8587 C.3     1  UNL1        0.1132
     24 C         141.3981  135.4240  155.6173 C.3     1  UNL1        0.1591
     25 N         142.2814  134.4092  156.2804 N.ar    1  UNL1       -0.1697
     26 N         143.5032  134.7043  157.0989 N.ar    1  UNL1       -0.1490
     27 C         144.0749  133.3985  157.5658 C.ar    1  UNL1        0.1442
     28 C         143.2064  132.2964  157.0359 C.ar    1  UNL1        0.1442
     29 N         142.0979  132.9209  156.2416 N.ar    1  UNL1       -0.1490
     30 C         139.7509  140.2777  169.6516 C.2     1  UNL1        0.0774
     31 O         140.5796  139.4032  170.5452 O.co2   1  UNL1       -0.5444
     32 O         138.6667  141.1339  170.2359 O.co2   1  UNL1       -0.5444
     33 C         142.5801  141.8672  165.5934 C.3     1  UNL1        0.0857
     34 C         143.1576  143.1560  165.0881 C.3     1  UNL1        0.0245
     35 C         144.0101  141.9232  165.1441 C.3     1  UNL1        0.0245
@<TRIPOS>UNITY_ATOM_ATTR
31 1
charge -1
@<TRIPOS>BOND
     1    19    20    2
     2    20    23    1
     3    23    24    1
     4    24    25    1
     5    25    26   ar
     6    26    27   ar
     7    27    28   ar
     8    28    29   ar
     9    20    21   am
    10    21    14    1
    11    14    15    1
    12    15    16    1
    13    16    17    1
    14    17     1    1
    15     1     2   ar
    16     2     3    1
    17     2     4   ar
    18     4     5   ar
    19     5     6   ar
    20     6     7    2
    21     6     8   ar
    22     8    30    1
    23    30    31   ar
    24    30    32   ar
    25     8     9   ar
    26     9    10   ar
    27    10    33    1
    28    33    34    1
    29    34    35    1
    30    10    11   ar
    31    11    12   ar
    32    12    13    1
    33    17    18    1
    34    29    25   ar
    35    18    14    1
    36    12     1   ar
    37    11     5   ar
    38    35    33    1
    39    21    22    1
@<TRIPOS>MOLECULE
*****
 35 39 0 0 0
SMALL
GASTEIGER

@<TRIPOS>ATOM
      1 C         142.9519  139.5016  164.1768 C.ar    1  UNL1        0.0878
      2 C         143.9788  139.0410  165.1685 C.ar    1  UNL1        0.1543
      3 F         145.3091  138.5379  164.6918 F       1  UNL1       -0.2028
      4 C         143.6753  139.0836  166.6368 C.ar    1  UNL1        0.0356
      5 C         142.3450  139.5866  167.1134 C.ar    1  UNL1        0.0580
      6 C         142.0415  139.6291  168.5819 C.ar    1  UNL1        0.1996
      7 O         143.0683  139.1686  169.5735 O.2     1  UNL1       -0.2864
      8 C         140.7112  140.1322  169.0585 C.ar    1  UNL1        0.0701
      9 C         139.6844  140.5928  168.0668 C.ar    1  UNL1        0.0801
     10 N         139.9878  140.5503  166.5984 N.ar    1  UNL1       -0.3270
     11 C         141.3181  140.0472  166.1218 C.ar    1  UNL1        0.0750
     12 C         141.6216  140.0047  164.6534 C.ar    1  UNL1        0.0890
     13 CL        140.5948  140.4653  163.6617 Cl      1  UNL1       -0.0794
     14 C         143.4135  138.7116  160.4047 C.3     1  UNL1        0.0929
     15 C         144.0312  140.0757  160.4928 C.3     1  UNL1        0.0427
     16 C         143.9334  140.5376  161.9166 C.3     1  UNL1        0.0927
     17 N         143.2554  139.4591  162.7084 N.pl3   1  UNL1       -0.3033
     18 C         142.9340  138.3305  161.7740 C.3     1  UNL1        0.1104
     19 O         140.9856  138.9509  158.6587 O.2     1  UNL1       -0.2750
     20 C         142.0820  137.9950  158.2919 C.2     1  UNL1        0.2246
     21 N         143.2959  137.8754  159.1650 N.am    1  UNL1       -0.3042
     22 H         144.0154  137.2480  158.9243 H       1  UNL1        0.1494
     23 C         141.9644  137.1588  157.0522 C.3     1  UNL1        0.1132
     24 C         142.9882  136.1020  156.7604 C.3     1  UNL1        0.1591
     25 N         142.5506  134.7210  156.3715 N.ar    1  UNL1       -0.1697
     26 N         141.4486  134.3828  155.4118 N.ar    1  UNL1       -0.1490
     27 C         141.3552  132.8885  155.3213 C.ar    1  UNL1        0.1442
     28 C         142.3995  132.3031  156.2250 C.ar    1  UNL1        0.1442
     29 N         143.1383  133.4357  156.8741 N.ar    1  UNL1       -0.1490
     30 C         140.4077  140.1747  170.5269 C.2     1  UNL1        0.0774
     31 O         141.2260  141.0419  171.4370 O.co2   1  UNL1       -0.5444
     32 O         139.2859  139.3501  171.0851 O.co2   1  UNL1       -0.5444
     33 C         138.9610  141.0108  165.6067 C.3     1  UNL1        0.0857
     34 C         137.8440  140.7012  164.6547 C.3     1  UNL1        0.0245
     35 C         138.2995  142.1181  164.8411 C.3     1  UNL1        0.0245
@<TRIPOS>UNITY_ATOM_ATTR
31 1
charge -1
@<TRIPOS>BOND
     1    19    20    2
     2    20    23    1
     3    23    24    1
     4    24    25    1
     5    25    26   ar
     6    26    27   ar
     7    27    28   ar
     8    28    29   ar
     9    20    21   am
    10    21    14    1
    11    14    15    1
    12    15    16    1
    13    16    17    1
    14    17     1    1
    15     1     2   ar
    16     2     3    1
    17     2     4   ar
    18     4     5   ar
    19     5     6   ar
    20     6     7    2
    21     6     8   ar
    22     8    30    1
    23    30    31   ar
    24    30    32   ar
    25     8     9   ar
    26     9    10   ar
    27    10    33    1
    28    33    34    1
    29    34    35    1
    30    10    11   ar
    31    11    12   ar
    32    12    13    1
    33    17    18    1
    34    29    25   ar
    35    18    14    1
    36    12     1   ar
    37    11     5   ar
    38    35    33    1
    39    21    22    1
@<TRIPOS>MOLECULE
*****
 35 39 0 0 0
SMALL
GASTEIGER

@<TRIPOS>ATOM
      1 C         142.0725  142.4405  163.8340 C.ar    1  UNL1        0.0878
      2 C         143.1624  143.2238  164.5036 C.ar    1  UNL1        0.1543
      3 F         143.9746  144.2060  163.7126 F       1  UNL1       -0.2028
      4 C         143.4401  143.0249  165.9642 C.ar    1  UNL1        0.0356
      5 C         142.6279  142.0427  166.7551 C.ar    1  UNL1        0.0580
      6 C         142.9057  141.8439  168.2157 C.ar    1  UNL1        0.1996
      7 O         143.9957  142.6272  168.8853 O.2     1  UNL1       -0.2864
      8 C         142.0935  140.8617  169.0067 C.ar    1  UNL1        0.0701
      9 C         141.0035  140.0784  168.3370 C.ar    1  UNL1        0.0801
     10 N         140.7257  140.2773  166.8765 N.ar    1  UNL1       -0.3270
     11 C         141.5380  141.2595  166.0855 C.ar    1  UNL1        0.0750
     12 C         141.2602  141.4584  164.6250 C.ar    1  UNL1        0.0890
     13 CL        140.1702  140.6750  163.9553 Cl      1  UNL1       -0.0794
     14 C         140.8967  143.5056  160.2915 C.3     1  UNL1        0.0929
     15 C         141.8377  142.3854  159.9601 C.3     1  UNL1        0.0427
     16 C         142.3926  141.8501  161.2467 C.3     1  UNL1        0.0927
     17 N         141.7947  142.6394  162.3734 N.pl3   1  UNL1       -0.3033
     18 C         140.8702  143.6626  161.7830 C.3     1  UNL1        0.1104
     19 O         142.2894  145.5920  158.6461 O.2     1  UNL1       -0.2750
     20 C         140.8152  145.3681  158.4820 C.2     1  UNL1        0.2246
     21 N         140.1189  144.3249  159.3048 N.am    1  UNL1       -0.3042
     22 H         139.1514  144.1780  159.1971 H       1  UNL1        0.1494
     23 C         140.0375  146.1874  157.4952 C.3     1  UNL1        0.1132
     24 C         139.6882  145.6136  156.1540 C.3     1  UNL1        0.1591
     25 N         138.6020  144.5857  156.0379 N.ar    1  UNL1       -0.1697
     26 N         137.3578  144.7075  155.2090 N.ar    1  UNL1       -0.1490
     27 C         136.5562  143.4525  155.3891 C.ar    1  UNL1        0.1442
     28 C         137.3050  142.5551  156.3292 C.ar    1  UNL1        0.1442
     29 N         138.5693  143.2554  156.7302 N.ar    1  UNL1       -0.1490
     30 C         142.3712  140.6628  170.4673 C.2     1  UNL1        0.0774
     31 O         143.3873  139.6506  170.9065 O.co2   1  UNL1       -0.5444
     32 O         141.6328  141.4761  171.4887 O.co2   1  UNL1       -0.5444
     33 C         139.6358  139.4940  166.2069 C.3     1  UNL1        0.0857
     34 C         139.1933  138.3005  165.4134 C.3     1  UNL1        0.0245
     35 C         138.1904  139.3308  165.8406 C.3     1  UNL1        0.0245
@<TRIPOS>UNITY_ATOM_ATTR
31 1
charge -1
@<TRIPOS>BOND
     1    19    20    2
     2    20    23    1
     3    23    24    1
     4    24    25    1
     5    25    26   ar
     6    26    27   ar
     7    27    28   ar
     8    28    29   ar
     9    20    21   am
    10    21    14    1
    11    14    15    1
    12    15    16    1
    13    16    17    1
    14    17     1    1
    15     1     2   ar
    16     2     3    1
    17     2     4   ar
    18     4     5   ar
    19     5     6   ar
    20     6     7    2
    21     6     8   ar
    22     8    30    1
    23    30    31   ar
    24    30    32   ar
    25     8     9   ar
    26     9    10   ar
    27    10    33    1
    28    33    34    1
    29    34    35    1
    30    10    11   ar
    31    11    12   ar
    32    12    13    1
    33    17    18    1
    34    29    25   ar
    35    18    14    1
    36    12     1   ar
    37    11     5   ar
    38    35    33    1
    39    21    22    1
@<TRIPOS>MOLECULE
*****
 35 39 0 0 0
SMALL
GASTEIGER

@<TRIPOS>ATOM
      1 C         142.8531  141.1186  164.6276 C.ar    1  UNL1        0.0878
      2 C         143.7908  141.9914  165.4080 C.ar    1  UNL1        0.1543
      3 F         145.0636  142.4753  164.7789 F       1  UNL1       -0.2028
      4 C         143.4556  142.3803  166.8173 C.ar    1  UNL1        0.0356
      5 C         142.1828  141.8964  167.4464 C.ar    1  UNL1        0.0580
      6 C         141.8476  142.2853  168.8559 C.ar    1  UNL1        0.1996
      7 O         142.7853  143.1581  169.6362 O.2     1  UNL1       -0.2864
      8 C         140.5748  141.8014  169.4849 C.ar    1  UNL1        0.0701
      9 C         139.6371  140.9286  168.7045 C.ar    1  UNL1        0.0801
     10 N         139.9723  140.5397  167.2951 N.ar    1  UNL1       -0.3270
     11 C         141.2451  141.0236  166.6661 C.ar    1  UNL1        0.0750
     12 C         141.5803  140.6347  165.2567 C.ar    1  UNL1        0.0890
     13 CL        140.6425  139.7619  164.4763 Cl      1  UNL1       -0.0794
     14 C         143.3262  140.7274  160.7950 C.3     1  UNL1        0.0929
     15 C         144.0815  139.5353  161.3036 C.3     1  UNL1        0.0427
     16 C         143.9962  139.5368  162.8011 C.3     1  UNL1        0.0927
     17 N         143.1882  140.7297  163.2182 N.pl3   1  UNL1       -0.3033
     18 C         142.7742  141.4656  161.9783 C.3     1  UNL1        0.1104
     19 O         145.2281  142.6684  159.5239 O.2     1  UNL1       -0.2750
     20 C         144.1043  142.0839  158.7203 C.2     1  UNL1        0.2246
     21 N         143.1534  141.1134  159.3559 N.am    1  UNL1       -0.3042
     22 H         142.4159  140.7298  158.8285 H       1  UNL1        0.1494
     23 C         143.9315  142.4700  157.2812 C.3     1  UNL1        0.1132
     24 C         142.9010  143.4900  156.8969 C.3     1  UNL1        0.1591
     25 N         141.9335  144.0020  157.9224 N.ar    1  UNL1       -0.1697
     26 N         140.7578  143.2533  158.4766 N.ar    1  UNL1       -0.1490
     27 C         140.0696  144.1411  159.4706 C.ar    1  UNL1        0.1442
     28 C         140.8199  145.4386  159.5307 C.ar    1  UNL1        0.1442
     29 N         141.9718  145.3526  158.5739 N.ar    1  UNL1       -0.1490
     30 C         140.2397  142.1903  170.8943 C.2     1  UNL1        0.0774
     31 O         140.8069  141.4097  172.0428 O.co2   1  UNL1       -0.5444
     32 O         139.3372  143.3597  171.1553 O.co2   1  UNL1       -0.5444
     33 C         139.0346  139.6669  166.5148 C.3     1  UNL1        0.0857
     34 C         138.0135  139.5028  165.4283 C.3     1  UNL1        0.0245
     35 C         138.4315  138.3194  166.2496 C.3     1  UNL1        0.0245
@<TRIPOS>UNITY_ATOM_ATTR
31 1
charge -1
@<TRIPOS>BOND
     1    19    20    2
     2    20    23    1
     3    23    24    1
     4    24    25    1
     5    25    26   ar
     6    26    27   ar
     7    27    28   ar
     8    28    29   ar
     9    20    21   am
    10    21    14    1
    11    14    15    1
    12    15    16    1
    13    16    17    1
    14    17     1    1
    15     1     2   ar
    16     2     3    1
    17     2     4   ar
    18     4     5   ar
    19     5     6   ar
    20     6     7    2
    21     6     8   ar
    22     8    30    1
    23    30    31   ar
    24    30    32   ar
    25     8     9   ar
    26     9    10   ar
    27    10    33    1
    28    33    34    1
    29    34    35    1
    30    10    11   ar
    31    11    12   ar
    32    12    13    1
    33    17    18    1
    34    29    25   ar
    35    18    14    1
    36    12     1   ar
    37    11     5   ar
    38    35    33    1
    39    21    22    1
@<TRIPOS>MOLECULE
*****
 35 39 0 0 0
SMALL
GASTEIGER

@<TRIPOS>ATOM
      1 C         140.7834  139.6268  164.3939 C.ar    1  UNL1        0.0878
      2 C         141.5204  138.6901  165.3045 C.ar    1  UNL1        0.1543
      3 F         141.9163  137.3276  164.8179 F       1  UNL1       -0.2028
      4 C         141.8616  139.1158  166.7018 C.ar    1  UNL1        0.0356
      5 C         141.4656  140.4784  167.1884 C.ar    1  UNL1        0.0580
      6 C         141.8068  140.9041  168.5857 C.ar    1  UNL1        0.1996
      7 O         142.5438  139.9673  169.4963 O.2     1  UNL1       -0.2864
      8 C         141.4109  142.2666  169.0724 C.ar    1  UNL1        0.0701
      9 C         140.6738  143.2034  168.1617 C.ar    1  UNL1        0.0801
     10 N         140.3327  142.7776  166.7645 N.ar    1  UNL1       -0.3270
     11 C         140.7286  141.4151  166.2778 C.ar    1  UNL1        0.0750
     12 C         140.3875  140.9893  164.8806 C.ar    1  UNL1        0.0890
     13 CL        139.6504  141.9261  163.9699 Cl      1  UNL1       -0.0794
     14 C         140.5789  138.8048  160.6060 C.3     1  UNL1        0.0929
     15 C         139.2557  138.2872  161.0868 C.3     1  UNL1        0.0427
     16 C         139.1712  138.5321  162.5642 C.3     1  UNL1        0.0927
     17 N         140.4422  139.2011  162.9966 N.pl3   1  UNL1       -0.3033
     18 C         141.3122  139.3696  161.7864 C.3     1  UNL1        0.1104
     19 O         142.9878  137.1551  159.9161 O.2     1  UNL1       -0.2750
     20 C         142.2852  137.9398  158.8480 C.2     1  UNL1        0.2246
     21 N         141.0807  138.7646  159.1930 N.am    1  UNL1       -0.3042
     22 H         140.6196  139.2796  158.4921 H       1  UNL1        0.1494
     23 C         142.7870  137.8996  157.4350 C.3     1  UNL1        0.1132
     24 C         142.1150  137.0171  156.4253 C.3     1  UNL1        0.1591
     25 N         142.3346  135.5337  156.4614 N.ar    1  UNL1       -0.1697
     26 N         143.2676  134.8028  157.3807 N.ar    1  UNL1       -0.1490
     27 C         143.1695  133.3382  157.0720 C.ar    1  UNL1        0.1442
     28 C         142.1759  133.1640  155.9620 C.ar    1  UNL1        0.1442
     29 N         141.6599  134.5209  155.5846 N.ar    1  UNL1       -0.1490
     30 C         141.7520  142.6924  170.4696 C.2     1  UNL1        0.0774
     31 O         140.9651  142.1584  171.6296 O.co2   1  UNL1       -0.5444
     32 O         142.8801  143.6521  170.7069 O.co2   1  UNL1       -0.5444
     33 C         139.5956  143.7144  165.8539 C.3     1  UNL1        0.0857
     34 C         139.5839  144.6311  164.6667 C.3     1  UNL1        0.0245
     35 C         138.3309  144.4202  165.4638 C.3     1  UNL1        0.0245
@<TRIPOS>UNITY_ATOM_ATTR
31 1
charge -1
@<TRIPOS>BOND
     1    19    20    2
     2    20    23    1
     3    23    24    1
     4    24    25    1
     5    25    26   ar
     6    26    27   ar
     7    27    28   ar
     8    28    29   ar
     9    20    21   am
    10    21    14    1
    11    14    15    1
    12    15    16    1
    13    16    17    1
    14    17     1    1
    15     1     2   ar
    16     2     3    1
    17     2     4   ar
    18     4     5   ar
    19     5     6   ar
    20     6     7    2
    21     6     8   ar
    22     8    30    1
    23    30    31   ar
    24    30    32   ar
    25     8     9   ar
    26     9    10   ar
    27    10    33    1
    28    33    34    1
    29    34    35    1
    30    10    11   ar
    31    11    12   ar
    32    12    13    1
    33    17    18    1
    34    29    25   ar
    35    18    14    1
    36    12     1   ar
    37    11     5   ar
    38    35    33    1
    39    21    22    1
@<TRIPOS>MOLECULE
*****
 35 39 0 0 0
SMALL
GASTEIGER

@<TRIPOS>ATOM
      1 C         142.8883  141.3976  164.2927 C.ar    1  UNL1        0.0878
      2 C         143.9056  142.1628  165.0862 C.ar    1  UNL1        0.1543
      3 F         145.1531  142.6642  164.4211 F       1  UNL1       -0.2028
      4 C         143.6754  142.4265  166.5447 C.ar    1  UNL1        0.0356
      5 C         142.4279  141.9251  167.2098 C.ar    1  UNL1        0.0580
      6 C         142.1978  142.1888  168.6685 C.ar    1  UNL1        0.1996
      7 O         143.2151  142.9540  169.4619 O.2     1  UNL1       -0.2864
      8 C         140.9503  141.6874  169.3336 C.ar    1  UNL1        0.0701
      9 C         139.9330  140.9222  168.5401 C.ar    1  UNL1        0.0801
     10 N         140.1632  140.6585  167.0815 N.ar    1  UNL1       -0.3270
     11 C         141.4106  141.1599  166.4164 C.ar    1  UNL1        0.0750
     12 C         141.6408  140.8962  164.9578 C.ar    1  UNL1        0.0890
     13 CL        140.6235  140.1310  164.1643 Cl      1  UNL1       -0.0794
     14 C         143.4996  139.9910  160.7271 C.3     1  UNL1        0.0929
     15 C         143.4457  141.4647  160.4521 C.3     1  UNL1        0.0427
     16 C         143.2101  142.1709  161.7543 C.3     1  UNL1        0.0927
     17 N         143.1185  141.1338  162.8341 N.pl3   1  UNL1       -0.3033
     18 C         143.2973  139.7866  162.1993 C.3     1  UNL1        0.1104
     19 O         141.1528  138.7589  159.3219 O.2     1  UNL1       -0.2750
     20 C         142.5440  138.2954  159.0061 C.2     1  UNL1        0.2246
     21 N         143.7174  138.9115  159.7087 N.am    1  UNL1       -0.3042
     22 H         144.6305  138.6073  159.5015 H       1  UNL1        0.1494
     23 C         142.7619  137.2158  157.9878 C.3     1  UNL1        0.1132
     24 C         142.8960  137.5699  156.5363 C.3     1  UNL1        0.1591
     25 N         143.7573  138.7263  156.1229 N.ar    1  UNL1       -0.1697
     26 N         145.1954  138.6489  155.7038 N.ar    1  UNL1       -0.1490
     27 C         145.6586  140.0378  155.3779 C.ar    1  UNL1        0.1442
     28 C         144.5068  140.9736  155.5955 C.ar    1  UNL1        0.1442
     29 N         143.3317  140.1631  156.0560 N.ar    1  UNL1       -0.1490
     30 C         140.7201  141.9512  170.7921 C.2     1  UNL1        0.0774
     31 O         141.5072  141.1986  171.8237 O.co2   1  UNL1       -0.5444
     32 O         139.7028  142.9675  171.2191 O.co2   1  UNL1       -0.5444
     33 C         139.1459  139.8933  166.2881 C.3     1  UNL1        0.0857
     34 C         138.0465  139.8662  165.2679 C.3     1  UNL1        0.0245
     35 C         138.4831  138.5951  165.9339 C.3     1  UNL1        0.0245
@<TRIPOS>UNITY_ATOM_ATTR
31 1
charge -1
@<TRIPOS>BOND
     1    19    20    2
     2    20    23    1
     3    23    24    1
     4    24    25    1
     5    25    26   ar
     6    26    27   ar
     7    27    28   ar
     8    28    29   ar
     9    20    21   am
    10    21    14    1
    11    14    15    1
    12    15    16    1
    13    16    17    1
    14    17     1    1
    15     1     2   ar
    16     2     3    1
    17     2     4   ar
    18     4     5   ar
    19     5     6   ar
    20     6     7    2
    21     6     8   ar
    22     8    30    1
    23    30    31   ar
    24    30    32   ar
    25     8     9   ar
    26     9    10   ar
    27    10    33    1
    28    33    34    1
    29    34    35    1
    30    10    11   ar
    31    11    12   ar
    32    12    13    1
    33    17    18    1
    34    29    25   ar
    35    18    14    1
    36    12     1   ar
    37    11     5   ar
    38    35    33    1
    39    21    22    1
@<TRIPOS>MOLECULE
*****
 35 39 0 0 0
SMALL
GASTEIGER

@<TRIPOS>ATOM
      1 C         142.8835  140.9360  164.5390 C.ar    1  UNL1        0.0878
      2 C         143.8290  141.8273  165.2884 C.ar    1  UNL1        0.1543
      3 F         145.1115  142.2679  164.6473 F       1  UNL1       -0.2028
      4 C         143.4921  142.2778  166.6788 C.ar    1  UNL1        0.0356
      5 C         142.2096  141.8372  167.3200 C.ar    1  UNL1        0.0580
      6 C         141.8727  142.2878  168.7105 C.ar    1  UNL1        0.1996
      7 O         142.8183  143.1790  169.4599 O.2     1  UNL1       -0.2864
      8 C         140.5903  141.8471  169.3516 C.ar    1  UNL1        0.0701
      9 C         139.6447  140.9558  168.6022 C.ar    1  UNL1        0.0801
     10 N         139.9816  140.5053  167.2117 N.ar    1  UNL1       -0.3270
     11 C         141.2641  140.9459  166.5706 C.ar    1  UNL1        0.0750
     12 C         141.6010  140.4954  165.1802 C.ar    1  UNL1        0.0890
     13 CL        140.6554  139.6041  164.4307 Cl      1  UNL1       -0.0794
     14 C         143.3474  140.3669  160.7276 C.3     1  UNL1        0.0929
     15 C         144.1300  139.2173  161.2898 C.3     1  UNL1        0.0427
     16 C         144.0514  139.2905  162.7859 C.3     1  UNL1        0.0927
     17 N         143.2204  140.4854  163.1485 N.pl3   1  UNL1       -0.3033
     18 C         142.7853  141.1507  161.8764 C.3     1  UNL1        0.1104
     19 O         144.9790  142.5264  159.4333 O.2     1  UNL1       -0.2750
     20 C         143.9758  141.7579  158.6251 C.2     1  UNL1        0.2246
     21 N         143.1600  140.6782  159.2723 N.am    1  UNL1       -0.3042
     22 H         142.5016  140.1738  158.7419 H       1  UNL1        0.1494
     23 C         143.7883  142.0691  157.1698 C.3     1  UNL1        0.1132
     24 C         144.4650  141.2266  156.1294 C.3     1  UNL1        0.1591
     25 N         144.1337  139.7682  156.0136 N.ar    1  UNL1       -0.1697
     26 N         145.0250  138.7041  155.4453 N.ar    1  UNL1       -0.1490
     27 C         144.2950  137.3962  155.5262 C.ar    1  UNL1        0.1442
     28 C         142.9526  137.6521  156.1444 C.ar    1  UNL1        0.1442
     29 N         142.8528  139.1180  156.4456 N.ar    1  UNL1       -0.1490
     30 C         140.2533  142.2977  170.7421 C.2     1  UNL1        0.0774
     31 O         139.5071  143.5814  170.9544 O.co2   1  UNL1       -0.5444
     32 O         140.6627  141.4644  171.9204 O.co2   1  UNL1       -0.5444
     33 C         139.0360  139.6140  166.4624 C.3     1  UNL1        0.0857
     34 C         138.0011  139.4247  165.3932 C.3     1  UNL1        0.0245
     35 C         138.4330  138.2598  166.2337 C.3     1  UNL1        0.0245
@<TRIPOS>UNITY_ATOM_ATTR
31 1
charge -1
@<TRIPOS>BOND
     1    19    20    2
     2    20    23    1
     3    23    24    1
     4    24    25    1
     5    25    26   ar
     6    26    27   ar
     7    27    28   ar
     8    28    29   ar
     9    20    21   am
    10    21    14    1
    11    14    15    1
    12    15    16    1
    13    16    17    1
    14    17     1    1
    15     1     2   ar
    16     2     3    1
    17     2     4   ar
    18     4     5   ar
    19     5     6   ar
    20     6     7    2
    21     6     8   ar
    22     8    30    1
    23    30    31   ar
    24    30    32   ar
    25     8     9   ar
    26     9    10   ar
    27    10    33    1
    28    33    34    1
    29    34    35    1
    30    10    11   ar
    31    11    12   ar
    32    12    13    1
    33    17    18    1
    34    29    25   ar
    35    18    14    1
    36    12     1   ar
    37    11     5   ar
    38    35    33    1
    39    21    22    1
@<TRIPOS>MOLECULE
*****
 35 39 0 0 0
SMALL
GASTEIGER

@<TRIPOS>ATOM
      1 C         139.9999  139.5078  164.2730 C.ar    1  UNL1        0.0878
      2 C         139.0405  138.7857  165.1719 C.ar    1  UNL1        0.1543
      3 F         138.1541  137.7116  164.6145 F       1  UNL1       -0.2028
      4 C         138.9675  139.1376  166.6281 C.ar    1  UNL1        0.0356
      5 C         139.8539  140.2117  167.1855 C.ar    1  UNL1        0.0580
      6 C         139.7808  140.5636  168.6419 C.ar    1  UNL1        0.1996
      7 O         138.8214  139.8415  169.5407 O.2     1  UNL1       -0.2864
      8 C         140.6672  141.6377  169.1993 C.ar    1  UNL1        0.0701
      9 C         141.6266  142.3598  168.3003 C.ar    1  UNL1        0.0801
     10 N         141.6997  142.0079  166.8441 N.ar    1  UNL1       -0.3270
     11 C         140.8133  140.9338  166.2867 C.ar    1  UNL1        0.0750
     12 C         140.8863  140.5819  164.8304 C.ar    1  UNL1        0.0890
     13 CL        141.8458  141.3040  163.9315 Cl      1  UNL1       -0.0794
     14 C         139.5395  138.9763  160.4558 C.3     1  UNL1        0.0929
     15 C         140.8313  138.2523  160.6955 C.3     1  UNL1        0.0427
     16 C         141.1609  138.3633  162.1546 C.3     1  UNL1        0.0927
     17 N         140.0730  139.1559  162.8167 N.pl3   1  UNL1       -0.3033
     18 C         139.0710  139.5347  161.7667 C.3     1  UNL1        0.1104
     19 O         139.7934  141.5209  158.8870 O.2     1  UNL1       -0.2750
     20 C         138.9663  140.3894  158.3523 C.2     1  UNL1        0.2246
     21 N         138.8394  139.1171  159.1367 N.am    1  UNL1       -0.3042
     22 H         138.2966  138.3745  158.7858 H       1  UNL1        0.1494
     23 C         138.2662  140.5302  157.0332 C.3     1  UNL1        0.1132
     24 C         137.1735  141.5446  156.8686 C.3     1  UNL1        0.1591
     25 N         135.8355  141.1259  156.3355 N.ar    1  UNL1       -0.1697
     26 N         134.9705  140.0310  156.8860 N.ar    1  UNL1       -0.1490
     27 C         133.7279  139.9569  156.0490 C.ar    1  UNL1        0.1442
     28 C         133.8250  141.0060  154.9813 C.ar    1  UNL1        0.1442
     29 N         135.1275  141.7284  155.1583 N.ar    1  UNL1       -0.1490
     30 C         140.5941  141.9896  170.6555 C.2     1  UNL1        0.0774
     31 O         139.5936  142.9997  171.1338 O.co2   1  UNL1       -0.5444
     32 O         141.5216  141.3315  171.6337 O.co2   1  UNL1       -0.5444
     33 C         142.6591  142.7300  165.9452 C.3     1  UNL1        0.0857
     34 C         142.9202  143.7412  164.8685 C.3     1  UNL1        0.0245
     35 C         144.0598  142.9696  165.4650 C.3     1  UNL1        0.0245
@<TRIPOS>UNITY_ATOM_ATTR
31 1
charge -1
@<TRIPOS>BOND
     1    19    20    2
     2    20    23    1
     3    23    24    1
     4    24    25    1
     5    25    26   ar
     6    26    27   ar
     7    27    28   ar
     8    28    29   ar
     9    20    21   am
    10    21    14    1
    11    14    15    1
    12    15    16    1
    13    16    17    1
    14    17     1    1
    15     1     2   ar
    16     2     3    1
    17     2     4   ar
    18     4     5   ar
    19     5     6   ar
    20     6     7    2
    21     6     8   ar
    22     8    30    1
    23    30    31   ar
    24    30    32   ar
    25     8     9   ar
    26     9    10   ar
    27    10    33    1
    28    33    34    1
    29    34    35    1
    30    10    11   ar
    31    11    12   ar
    32    12    13    1
    33    17    18    1
    34    29    25   ar
    35    18    14    1
    36    12     1   ar
    37    11     5   ar
    38    35    33    1
    39    21    22    1
