@<TRIPOS>MOLECULE
*****
 30 32 0 0 0
SMALL
GASTEIGER

@<TRIPOS>ATOM
      1 O         137.2153  139.9939  160.7653 O.2     1  UNL1       -0.2701
      2 C         138.2548  140.5380  161.6998 C.2     1  UNL1        0.2476
      3 N         138.9557  141.8239  161.3753 N.am    1  UNL1       -0.2967
      4 H         139.6379  142.1810  161.9886 H       1  UNL1        0.1501
      5 C         138.5933  139.7963  162.9588 C.ar    1  UNL1        0.0725
      6 C         138.6080  138.2964  162.9648 C.ar    1  UNL1        0.1034
      7 N         138.9466  137.5547  164.2238 N.ar    1  UNL1       -0.2422
      8 C         139.2706  138.3129  165.4769 C.ar    1  UNL1        0.0988
      9 C         139.2559  139.8128  165.4710 C.ar    1  UNL1        0.0193
     10 C         138.9173  140.5545  164.2118 C.ar    1  UNL1        0.0076
     11 C         139.5799  140.5710  166.7240 C.ar    1  UNL1        0.0016
     12 C         140.2013  141.9334  166.6367 C.ar    1  UNL1        0.0009
     13 C         140.5253  142.6917  167.8897 C.ar    1  UNL1        0.0114
     14 C         140.2278  142.0875  169.2301 C.ar    1  UNL1        0.0577
     15 CL        140.5518  142.8457  170.4831 Cl      1  UNL1       -0.0822
     16 C         139.6064  140.7250  169.3173 C.ar    1  UNL1        0.0114
     17 C         139.2824  139.9668  168.0643 C.ar    1  UNL1        0.0009
     18 C         138.6171  142.5656  160.1162 C.3     1  UNL1        0.1212
     19 C         139.5888  143.5549  159.5442 C.ar    1  UNL1        0.0507
     20 C         139.7114  143.7119  158.0575 C.ar    1  UNL1        0.0036
     21 C         140.6831  144.7012  157.4855 C.ar    1  UNL1        0.0206
     22 C         141.5321  145.5334  158.4001 C.ar    1  UNL1        0.1020
     23 N         141.4094  145.3764  159.8868 N.ar    1  UNL1       -0.2104
     24 C         140.4378  144.3871  160.4588 C.ar    1  UNL1        0.2225
     25 O         140.3151  144.2300  161.9456 O.3     1  UNL1       -0.4511
     26 C         139.3825  145.1145  162.7188 C.3     1  UNL1        0.3095
     27 C         138.5640  144.5442  163.8389 C.3     1  UNL1        0.4381
     28 F         137.7455  143.9739  164.9591 F       1  UNL1       -0.1663
     29 F         137.4595  144.2324  162.8731 F       1  UNL1       -0.1663
     30 F         139.6684  144.8561  164.8047 F       1  UNL1       -0.1663
@<TRIPOS>BOND
     1     1     2    2
     2     2     3   am
     3     3    18    1
     4    18    19    1
     5    19    20   ar
     6    20    21   ar
     7    21    22   ar
     8    22    23   ar
     9    23    24   ar
    10    24    25    1
    11    25    26    1
    12    26    27    1
    13    27    28    1
    14    27    29    1
    15    27    30    1
    16     2     5    1
    17     5     6   ar
    18     6     7   ar
    19     7     8   ar
    20     8     9   ar
    21     9    11    1
    22    11    12   ar
    23    12    13   ar
    24    13    14   ar
    25    14    15    1
    26    14    16   ar
    27    16    17   ar
    28     9    10   ar
    29    24    19   ar
    30    10     5   ar
    31    17    11   ar
    32     3     4    1
@<TRIPOS>MOLECULE
*****
 30 32 0 0 0
SMALL
GASTEIGER

@<TRIPOS>ATOM
      1 O         138.1280  139.6526  162.3507 O.2     1  UNL1       -0.2701
      2 C         139.1550  140.2485  163.2674 C.2     1  UNL1        0.2476
      3 N         140.2836  141.0596  162.7030 N.am    1  UNL1       -0.2967
      4 H         140.9577  141.4506  163.3046 H       1  UNL1        0.1501
      5 C         139.0536  140.0331  164.7483 C.ar    1  UNL1        0.0725
      6 C         138.0562  139.0567  165.2977 C.ar    1  UNL1        0.1034
      7 N         137.9547  138.8414  166.7786 N.ar    1  UNL1       -0.2422
      8 C         138.8506  139.6026  167.7104 C.ar    1  UNL1        0.0988
      9 C         139.8480  140.5790  167.1610 C.ar    1  UNL1        0.0193
     10 C         139.9495  140.7943  165.6800 C.ar    1  UNL1        0.0076
     11 C         140.7439  141.3402  168.0927 C.ar    1  UNL1        0.0016
     12 C         140.2007  141.8776  169.3834 C.ar    1  UNL1        0.0009
     13 C         141.0966  142.6388  170.3151 C.ar    1  UNL1        0.0114
     14 C         142.5357  142.8625  169.9560 C.ar    1  UNL1        0.0577
     15 CL        143.4316  143.6236  170.8876 Cl      1  UNL1       -0.0822
     16 C         143.0789  142.3250  168.6651 C.ar    1  UNL1        0.0114
     17 C         142.1830  141.5639  167.7335 C.ar    1  UNL1        0.0009
     18 C         140.3851  141.2749  161.2220 C.3     1  UNL1        0.1212
     19 C         140.5117  142.6652  160.6732 C.ar    1  UNL1        0.0507
     20 C         141.6647  143.0170  159.7805 C.ar    1  UNL1        0.0036
     21 C         141.7913  144.4072  159.2317 C.ar    1  UNL1        0.0206
     22 C         140.7649  145.4456  159.5755 C.ar    1  UNL1        0.1020
     23 N         139.6120  145.0938  160.4682 N.ar    1  UNL1       -0.2104
     24 C         139.4854  143.7036  161.0170 C.ar    1  UNL1        0.2225
     25 O         138.3323  143.3517  161.9097 O.3     1  UNL1       -0.4511
     26 C         137.9044  144.2995  162.9907 C.3     1  UNL1        0.3095
     27 C         138.4520  144.1501  164.3791 C.3     1  UNL1        0.4381
     28 F         138.9997  144.0008  165.7676 F       1  UNL1       -0.1663
     29 F         137.4819  143.0367  164.6420 F       1  UNL1       -0.1663
     30 F         139.4221  145.2636  164.1162 F       1  UNL1       -0.1663
@<TRIPOS>BOND
     1     1     2    2
     2     2     3   am
     3     3    18    1
     4    18    19    1
     5    19    20   ar
     6    20    21   ar
     7    21    22   ar
     8    22    23   ar
     9    23    24   ar
    10    24    25    1
    11    25    26    1
    12    26    27    1
    13    27    28    1
    14    27    29    1
    15    27    30    1
    16     2     5    1
    17     5     6   ar
    18     6     7   ar
    19     7     8   ar
    20     8     9   ar
    21     9    11    1
    22    11    12   ar
    23    12    13   ar
    24    13    14   ar
    25    14    15    1
    26    14    16   ar
    27    16    17   ar
    28     9    10   ar
    29    24    19   ar
    30    10     5   ar
    31    17    11   ar
    32     3     4    1
@<TRIPOS>MOLECULE
*****
 30 32 0 0 0
SMALL
GASTEIGER

@<TRIPOS>ATOM
      1 O         143.0747  144.6433  161.7089 O.2     1  UNL1       -0.2701
      2 C         142.1531  144.4989  162.8836 C.2     1  UNL1        0.2476
      3 N         140.7357  144.9805  162.7884 N.am    1  UNL1       -0.2967
      4 H         140.1308  144.8858  163.5593 H       1  UNL1        0.1501
      5 C         142.6489  143.8731  164.1534 C.ar    1  UNL1        0.0725
      6 C         144.1119  143.9035  164.4831 C.ar    1  UNL1        0.1034
      7 N         144.6077  143.2776  165.7529 N.ar    1  UNL1       -0.2422
      8 C         143.6405  142.6214  166.6931 C.ar    1  UNL1        0.0988
      9 C         142.1775  142.5910  166.3634 C.ar    1  UNL1        0.0193
     10 C         141.6817  143.2169  165.0935 C.ar    1  UNL1        0.0076
     11 C         141.2103  141.9348  167.3035 C.ar    1  UNL1        0.0016
     12 C         140.9597  142.5297  168.6574 C.ar    1  UNL1        0.0009
     13 C         139.9924  141.8735  169.5976 C.ar    1  UNL1        0.0114
     14 C         139.2758  140.6224  169.1838 C.ar    1  UNL1        0.0577
     15 CL        138.3086  139.9661  170.1239 Cl      1  UNL1       -0.0822
     16 C         139.5265  140.0275  167.8297 C.ar    1  UNL1        0.0114
     17 C         140.4937  140.6837  166.8896 C.ar    1  UNL1        0.0009
     18 C         140.2399  145.6063  161.5186 C.3     1  UNL1        0.1212
     19 C         140.0050  144.7561  160.3052 C.ar    1  UNL1        0.0507
     20 C         140.2382  145.3225  158.9360 C.ar    1  UNL1        0.0036
     21 C         140.0033  144.4723  157.7228 C.ar    1  UNL1        0.0206
     22 C         139.5352  143.0557  157.8788 C.ar    1  UNL1        0.1020
     23 N         139.3020  142.4894  159.2481 N.ar    1  UNL1       -0.2104
     24 C         139.5369  143.3396  160.4613 C.ar    1  UNL1        0.2225
     25 O         139.3036  142.7733  161.8306 O.3     1  UNL1       -0.4511
     26 C         137.9211  142.7631  162.4125 C.3     1  UNL1        0.3095
     27 C         137.6394  143.4982  163.6893 C.3     1  UNL1        0.4381
     28 F         137.3577  144.2332  164.9662 F       1  UNL1       -0.1663
     29 F         137.3659  144.7494  162.9087 F       1  UNL1       -0.1663
     30 F         137.9129  142.2469  164.4700 F       1  UNL1       -0.1663
@<TRIPOS>BOND
     1     1     2    2
     2     2     3   am
     3     3    18    1
     4    18    19    1
     5    19    20   ar
     6    20    21   ar
     7    21    22   ar
     8    22    23   ar
     9    23    24   ar
    10    24    25    1
    11    25    26    1
    12    26    27    1
    13    27    28    1
    14    27    29    1
    15    27    30    1
    16     2     5    1
    17     5     6   ar
    18     6     7   ar
    19     7     8   ar
    20     8     9   ar
    21     9    11    1
    22    11    12   ar
    23    12    13   ar
    24    13    14   ar
    25    14    15    1
    26    14    16   ar
    27    16    17   ar
    28     9    10   ar
    29    24    19   ar
    30    10     5   ar
    31    17    11   ar
    32     3     4    1
@<TRIPOS>MOLECULE
*****
 30 32 0 0 0
SMALL
GASTEIGER

@<TRIPOS>ATOM
      1 O         140.2456  137.4814  162.0772 O.2     1  UNL1       -0.2701
      2 C         140.8689  137.9974  163.3403 C.2     1  UNL1        0.2476
      3 N         142.3414  138.2789  163.3893 N.am    1  UNL1       -0.2967
      4 H         142.7505  138.6176  164.2183 H       1  UNL1        0.1501
      5 C         140.0196  138.2318  164.5542 C.ar    1  UNL1        0.0725
      6 C         138.8778  137.3086  164.8605 C.ar    1  UNL1        0.1034
      7 N         138.0286  137.5430  166.0745 N.ar    1  UNL1       -0.2422
      8 C         138.3211  138.7008  166.9823 C.ar    1  UNL1        0.0988
      9 C         139.4630  139.6241  166.6760 C.ar    1  UNL1        0.0193
     10 C         140.3122  139.3896  165.4620 C.ar    1  UNL1        0.0076
     11 C         139.7555  140.7818  167.5837 C.ar    1  UNL1        0.0016
     12 C         139.5684  140.6393  169.0651 C.ar    1  UNL1        0.0009
     13 C         139.8610  141.7970  169.9729 C.ar    1  UNL1        0.0114
     14 C         140.3407  143.0973  169.3992 C.ar    1  UNL1        0.0577
     15 CL        140.6333  144.2551  170.3070 Cl      1  UNL1       -0.0822
     16 C         140.5278  143.2398  167.9177 C.ar    1  UNL1        0.0114
     17 C         140.2352  142.0821  167.0100 C.ar    1  UNL1        0.0009
     18 C         143.1907  138.0445  162.1753 C.3     1  UNL1        0.1212
     19 C         143.4859  139.1766  161.2365 C.ar    1  UNL1        0.0507
     20 C         143.3891  138.9665  159.7545 C.ar    1  UNL1        0.0036
     21 C         143.6844  140.0986  158.8157 C.ar    1  UNL1        0.0206
     22 C         144.0764  141.4406  159.3590 C.ar    1  UNL1        0.1020
     23 N         144.1732  141.6507  160.8410 N.ar    1  UNL1       -0.2104
     24 C         143.8779  140.5186  161.7798 C.ar    1  UNL1        0.2225
     25 O         143.9747  140.7286  163.2619 O.3     1  UNL1       -0.4511
     26 C         144.2175  142.1035  163.8103 C.3     1  UNL1        0.3095
     27 C         143.9641  142.3879  165.2611 C.3     1  UNL1        0.4381
     28 F         143.7108  142.6722  166.7120 F       1  UNL1       -0.1663
     29 F         143.0637  141.1907  165.3385 F       1  UNL1       -0.1663
     30 F         144.8646  143.5850  165.1838 F       1  UNL1       -0.1663
@<TRIPOS>BOND
     1     1     2    2
     2     2     3   am
     3     3    18    1
     4    18    19    1
     5    19    20   ar
     6    20    21   ar
     7    21    22   ar
     8    22    23   ar
     9    23    24   ar
    10    24    25    1
    11    25    26    1
    12    26    27    1
    13    27    28    1
    14    27    29    1
    15    27    30    1
    16     2     5    1
    17     5     6   ar
    18     6     7   ar
    19     7     8   ar
    20     8     9   ar
    21     9    11    1
    22    11    12   ar
    23    12    13   ar
    24    13    14   ar
    25    14    15    1
    26    14    16   ar
    27    16    17   ar
    28     9    10   ar
    29    24    19   ar
    30    10     5   ar
    31    17    11   ar
    32     3     4    1
@<TRIPOS>MOLECULE
*****
 30 32 0 0 0
SMALL
GASTEIGER

@<TRIPOS>ATOM
      1 O         137.9048  143.3829  161.6930 O.2     1  UNL1       -0.2701
      2 C         138.9455  143.2123  162.7597 C.2     1  UNL1        0.2476
      3 N         140.1010  144.1655  162.8394 N.am    1  UNL1       -0.2967
      4 H         140.7841  144.0535  163.5395 H       1  UNL1        0.1501
      5 C         138.8306  142.0887  163.7466 C.ar    1  UNL1        0.0725
      6 C         138.0765  140.8443  163.3821 C.ar    1  UNL1        0.1034
      7 N         137.9617  139.7207  164.3691 N.ar    1  UNL1       -0.2422
      8 C         138.6011  139.8413  165.7207 C.ar    1  UNL1        0.0988
      9 C         139.3552  141.0856  166.0852 C.ar    1  UNL1        0.0193
     10 C         139.4700  142.2093  165.0981 C.ar    1  UNL1        0.0076
     11 C         139.9946  141.2063  167.4367 C.ar    1  UNL1        0.0016
     12 C         140.6990  142.4731  167.8227 C.ar    1  UNL1        0.0009
     13 C         141.3384  142.5938  169.1743 C.ar    1  UNL1        0.0114
     14 C         141.2734  141.4477  170.1398 C.ar    1  UNL1        0.0577
     15 CL        141.9128  141.5684  171.4913 Cl      1  UNL1       -0.0822
     16 C         140.5689  140.1809  169.7537 C.ar    1  UNL1        0.0114
     17 C         139.9296  140.0602  168.4022 C.ar    1  UNL1        0.0009
     18 C         140.2158  145.2891  161.8524 C.3     1  UNL1        0.1212
     19 C         140.8916  145.0620  160.5326 C.ar    1  UNL1        0.0507
     20 C         140.3271  145.6755  159.2856 C.ar    1  UNL1        0.0036
     21 C         141.0029  145.4483  157.9659 C.ar    1  UNL1        0.0206
     22 C         142.2432  144.6078  157.8932 C.ar    1  UNL1        0.1020
     23 N         142.8077  143.9944  159.1402 N.ar    1  UNL1       -0.2104
     24 C         142.1319  144.2215  160.4599 C.ar    1  UNL1        0.2225
     25 O         142.6963  143.6081  161.7070 O.3     1  UNL1       -0.4511
     26 C         143.7654  144.3246  162.4776 C.3     1  UNL1        0.3095
     27 C         143.9427  144.0547  163.9424 C.3     1  UNL1        0.4381
     28 F         144.1200  143.7848  165.4073 F       1  UNL1       -0.1663
     29 F         143.3016  145.3724  164.2628 F       1  UNL1       -0.1663
     30 F         144.5837  142.7370  163.6220 F       1  UNL1       -0.1663
@<TRIPOS>BOND
     1     1     2    2
     2     2     3   am
     3     3    18    1
     4    18    19    1
     5    19    20   ar
     6    20    21   ar
     7    21    22   ar
     8    22    23   ar
     9    23    24   ar
    10    24    25    1
    11    25    26    1
    12    26    27    1
    13    27    28    1
    14    27    29    1
    15    27    30    1
    16     2     5    1
    17     5     6   ar
    18     6     7   ar
    19     7     8   ar
    20     8     9   ar
    21     9    11    1
    22    11    12   ar
    23    12    13   ar
    24    13    14   ar
    25    14    15    1
    26    14    16   ar
    27    16    17   ar
    28     9    10   ar
    29    24    19   ar
    30    10     5   ar
    31    17    11   ar
    32     3     4    1
@<TRIPOS>MOLECULE
*****
 30 32 0 0 0
SMALL
GASTEIGER

@<TRIPOS>ATOM
      1 O         137.7314  142.8845  161.2476 O.2     1  UNL1       -0.2701
      2 C         138.1082  141.9724  162.3773 C.2     1  UNL1        0.2476
      3 N         137.9700  140.4871  162.2201 N.am    1  UNL1       -0.2967
      4 H         138.2173  139.8885  162.9615 H       1  UNL1        0.1501
      5 C         138.6231  142.5457  163.6642 C.ar    1  UNL1        0.0725
      6 C         138.4376  144.0039  163.9631 C.ar    1  UNL1        0.1034
      7 N         138.9526  144.5771  165.2500 N.ar    1  UNL1       -0.2422
      8 C         139.6531  143.6922  166.2381 C.ar    1  UNL1        0.0988
      9 C         139.8387  142.2340  165.9392 C.ar    1  UNL1        0.0193
     10 C         139.3236  141.6608  164.6522 C.ar    1  UNL1        0.0076
     11 C         140.5392  141.3491  166.9272 C.ar    1  UNL1        0.0016
     12 C         139.8082  140.8526  168.1393 C.ar    1  UNL1        0.0009
     13 C         140.5087  139.9676  169.1273 C.ar    1  UNL1        0.0114
     14 C         141.9401  139.5792  168.9032 C.ar    1  UNL1        0.0577
     15 CL        142.6406  138.6943  169.8912 Cl      1  UNL1       -0.0822
     16 C         142.6710  140.0758  167.6911 C.ar    1  UNL1        0.0114
     17 C         141.9706  140.9607  166.7031 C.ar    1  UNL1        0.0009
     18 C         137.4550  139.9138  160.9332 C.3     1  UNL1        0.1212
     19 C         138.4050  139.6176  159.8107 C.ar    1  UNL1        0.0507
     20 C         138.2980  140.3720  158.5187 C.ar    1  UNL1        0.0036
     21 C         139.2480  140.0757  157.3964 C.ar    1  UNL1        0.0206
     22 C         140.3050  139.0250  157.5661 C.ar    1  UNL1        0.1020
     23 N         140.4120  138.2706  158.8581 N.ar    1  UNL1       -0.2104
     24 C         139.4620  138.5669  159.9804 C.ar    1  UNL1        0.2225
     25 O         139.5690  137.8124  161.2725 O.3     1  UNL1       -0.4511
     26 C         140.6662  138.1376  162.2422 C.3     1  UNL1        0.3095
     27 C         140.3694  138.2212  163.7102 C.3     1  UNL1        0.4381
     28 F         140.0727  138.3048  165.1782 F       1  UNL1       -0.1663
     29 F         139.1472  137.3747  163.5113 F       1  UNL1       -0.1663
     30 F         141.5917  139.0676  163.9091 F       1  UNL1       -0.1663
@<TRIPOS>BOND
     1     1     2    2
     2     2     3   am
     3     3    18    1
     4    18    19    1
     5    19    20   ar
     6    20    21   ar
     7    21    22   ar
     8    22    23   ar
     9    23    24   ar
    10    24    25    1
    11    25    26    1
    12    26    27    1
    13    27    28    1
    14    27    29    1
    15    27    30    1
    16     2     5    1
    17     5     6   ar
    18     6     7   ar
    19     7     8   ar
    20     8     9   ar
    21     9    11    1
    22    11    12   ar
    23    12    13   ar
    24    13    14   ar
    25    14    15    1
    26    14    16   ar
    27    16    17   ar
    28     9    10   ar
    29    24    19   ar
    30    10     5   ar
    31    17    11   ar
    32     3     4    1
@<TRIPOS>MOLECULE
*****
 30 32 0 0 0
SMALL
GASTEIGER

@<TRIPOS>ATOM
      1 O         141.5361  138.9349  161.7182 O.2     1  UNL1       -0.2701
      2 C         140.7200  139.0022  162.9749 C.2     1  UNL1        0.2476
      3 N         139.2223  139.0326  162.8958 N.am    1  UNL1       -0.2967
      4 H         138.6866  139.0767  163.7207 H       1  UNL1        0.1501
      5 C         141.4014  139.0391  164.3106 C.ar    1  UNL1        0.0725
      6 C         142.6516  138.2418  164.5371 C.ar    1  UNL1        0.1034
      7 N         143.3330  138.2787  165.8728 N.ar    1  UNL1       -0.2422
      8 C         142.7643  139.1130  166.9822 C.ar    1  UNL1        0.0988
      9 C         141.5141  139.9103  166.7557 C.ar    1  UNL1        0.0193
     10 C         140.8327  139.8734  165.4199 C.ar    1  UNL1        0.0076
     11 C         140.9453  140.7446  167.8650 C.ar    1  UNL1        0.0016
     12 C         141.2044  142.2216  167.9011 C.ar    1  UNL1        0.0009
     13 C         140.6356  143.0559  169.0104 C.ar    1  UNL1        0.0114
     14 C         139.8078  142.4132  170.0835 C.ar    1  UNL1        0.0577
     15 CL        139.2391  143.2475  171.1927 Cl      1  UNL1       -0.0822
     16 C         139.5488  140.9361  170.0473 C.ar    1  UNL1        0.0114
     17 C         140.1175  140.1019  168.9381 C.ar    1  UNL1        0.0009
     18 C         138.5409  138.9957  161.5601 C.3     1  UNL1        0.1212
     19 C         138.5093  140.2242  160.7000 C.ar    1  UNL1        0.0507
     20 C         138.6436  140.1011  159.2111 C.ar    1  UNL1        0.0036
     21 C         138.6120  141.3296  158.3511 C.ar    1  UNL1        0.0206
     22 C         138.4462  142.6813  158.9799 C.ar    1  UNL1        0.1020
     23 N         138.3119  142.8044  160.4688 N.ar    1  UNL1       -0.2104
     24 C         138.3434  141.5759  161.3288 C.ar    1  UNL1        0.2225
     25 O         138.2091  141.6990  162.8178 O.3     1  UNL1       -0.4511
     26 C         137.8025  143.0074  163.4285 C.3     1  UNL1        0.3095
     27 C         138.5230  143.5269  164.6371 C.3     1  UNL1        0.4381
     28 F         139.2434  144.0466  165.8459 F       1  UNL1       -0.1663
     29 F         139.7128  142.6816  164.2913 F       1  UNL1       -0.1663
     30 F         137.3332  144.3723  164.9829 F       1  UNL1       -0.1663
@<TRIPOS>BOND
     1     1     2    2
     2     2     3   am
     3     3    18    1
     4    18    19    1
     5    19    20   ar
     6    20    21   ar
     7    21    22   ar
     8    22    23   ar
     9    23    24   ar
    10    24    25    1
    11    25    26    1
    12    26    27    1
    13    27    28    1
    14    27    29    1
    15    27    30    1
    16     2     5    1
    17     5     6   ar
    18     6     7   ar
    19     7     8   ar
    20     8     9   ar
    21     9    11    1
    22    11    12   ar
    23    12    13   ar
    24    13    14   ar
    25    14    15    1
    26    14    16   ar
    27    16    17   ar
    28     9    10   ar
    29    24    19   ar
    30    10     5   ar
    31    17    11   ar
    32     3     4    1
@<TRIPOS>MOLECULE
*****
 30 32 0 0 0
SMALL
GASTEIGER

@<TRIPOS>ATOM
      1 O         141.8586  140.6146  160.9464 O.2     1  UNL1       -0.2701
      2 C         140.8925  140.5360  162.0911 C.2     1  UNL1        0.2476
      3 N         139.4633  140.9477  161.8960 N.am    1  UNL1       -0.2967
      4 H         138.8292  140.8960  162.6473 H       1  UNL1        0.1501
      5 C         141.3555  140.0456  163.4309 C.ar    1  UNL1        0.0725
      6 C         142.2884  138.8743  163.5195 C.ar    1  UNL1        0.1034
      7 N         142.7514  138.3840  164.8593 N.ar    1  UNL1       -0.2422
      8 C         142.2815  139.0648  166.1106 C.ar    1  UNL1        0.0988
      9 C         141.3486  140.2361  166.0220 C.ar    1  UNL1        0.0193
     10 C         140.8856  140.7265  164.6821 C.ar    1  UNL1        0.0076
     11 C         140.8787  140.9170  167.2732 C.ar    1  UNL1        0.0016
     12 C         140.9718  142.4091  167.3953 C.ar    1  UNL1        0.0009
     13 C         140.5019  143.0900  168.6465 C.ar    1  UNL1        0.0114
     14 C         139.9389  142.2788  169.7757 C.ar    1  UNL1        0.0577
     15 CL        139.4690  142.9597  171.0269 Cl      1  UNL1       -0.0822
     16 C         139.8458  140.7866  169.6535 C.ar    1  UNL1        0.0114
     17 C         140.3157  140.1058  168.4023 C.ar    1  UNL1        0.0009
     18 C         139.0003  141.4380  160.5562 C.3     1  UNL1        0.1212
     19 C         139.4058  142.7996  160.0747 C.ar    1  UNL1        0.0507
     20 C         139.5521  143.0626  158.6053 C.ar    1  UNL1        0.0036
     21 C         139.9576  144.4242  158.1238 C.ar    1  UNL1        0.0206
     22 C         140.2168  145.5226  159.1119 C.ar    1  UNL1        0.1020
     23 N         140.0705  145.2596  160.5813 N.ar    1  UNL1       -0.2104
     24 C         139.6650  143.8981  161.0627 C.ar    1  UNL1        0.2225
     25 O         139.5186  143.6350  162.5323 O.3     1  UNL1       -0.4511
     26 C         138.3453  144.1941  163.2811 C.3     1  UNL1        0.3095
     27 C         138.5281  144.7289  164.6705 C.3     1  UNL1        0.4381
     28 F         138.7109  145.2638  166.0600 F       1  UNL1       -0.1663
     29 F         139.9340  145.1276  164.3321 F       1  UNL1       -0.1663
     30 F         137.1222  144.3303  165.0089 F       1  UNL1       -0.1663
@<TRIPOS>BOND
     1     1     2    2
     2     2     3   am
     3     3    18    1
     4    18    19    1
     5    19    20   ar
     6    20    21   ar
     7    21    22   ar
     8    22    23   ar
     9    23    24   ar
    10    24    25    1
    11    25    26    1
    12    26    27    1
    13    27    28    1
    14    27    29    1
    15    27    30    1
    16     2     5    1
    17     5     6   ar
    18     6     7   ar
    19     7     8   ar
    20     8     9   ar
    21     9    11    1
    22    11    12   ar
    23    12    13   ar
    24    13    14   ar
    25    14    15    1
    26    14    16   ar
    27    16    17   ar
    28     9    10   ar
    29    24    19   ar
    30    10     5   ar
    31    17    11   ar
    32     3     4    1
@<TRIPOS>MOLECULE
*****
 30 32 0 0 0
SMALL
GASTEIGER

@<TRIPOS>ATOM
      1 O         138.1794  142.6689  164.5079 O.2     1  UNL1       -0.2701
      2 C         139.5379  143.2673  164.2929 C.2     1  UNL1        0.2476
      3 N         140.5849  143.1541  165.3612 N.am    1  UNL1       -0.2967
      4 H         141.4766  143.5468  165.2201 H       1  UNL1        0.1501
      5 C         139.8496  143.9789  163.0098 C.ar    1  UNL1        0.0725
      6 C         139.0806  145.2090  162.6284 C.ar    1  UNL1        0.1034
      7 N         139.3922  145.9206  161.3453 N.ar    1  UNL1       -0.2422
      8 C         140.4728  145.4020  160.4434 C.ar    1  UNL1        0.0988
      9 C         141.2419  144.1719  160.8247 C.ar    1  UNL1        0.0193
     10 C         140.9302  143.4603  162.1079 C.ar    1  UNL1        0.0076
     11 C         142.3225  143.6533  159.9229 C.ar    1  UNL1        0.0016
     12 C         143.5070  142.9406  160.5048 C.ar    1  UNL1        0.0009
     13 C         144.5878  142.4220  159.6030 C.ar    1  UNL1        0.0114
     14 C         144.4838  142.6162  158.1193 C.ar    1  UNL1        0.0577
     15 CL        145.5644  142.0977  157.2175 Cl      1  UNL1       -0.0822
     16 C         143.2992  143.3290  157.5374 C.ar    1  UNL1        0.0114
     17 C         142.2185  143.8476  158.4392 C.ar    1  UNL1        0.0009
     18 C         140.2733  142.4425  166.6443 C.3     1  UNL1        0.1212
     19 C         141.1985  142.5726  167.8179 C.ar    1  UNL1        0.0507
     20 C         140.6513  142.9286  169.1684 C.ar    1  UNL1        0.0036
     21 C         141.5764  143.0587  170.3419 C.ar    1  UNL1        0.0206
     22 C         143.0487  142.8328  170.1649 C.ar    1  UNL1        0.1020
     23 N         143.5959  142.4768  168.8144 N.ar    1  UNL1       -0.2104
     24 C         142.6707  142.3467  167.6409 C.ar    1  UNL1        0.2225
     25 O         143.2179  141.9907  166.2903 O.3     1  UNL1       -0.4511
     26 C         143.9769  143.0117  165.4957 C.3     1  UNL1        0.3095
     27 C         144.7311  142.5969  164.2674 C.3     1  UNL1        0.4381
     28 F         145.4855  142.1821  163.0389 F       1  UNL1       -0.1663
     29 F         144.9050  141.2210  164.8388 F       1  UNL1       -0.1663
     30 F         144.5572  143.9728  163.6959 F       1  UNL1       -0.1663
@<TRIPOS>BOND
     1     1     2    2
     2     2     3   am
     3     3    18    1
     4    18    19    1
     5    19    20   ar
     6    20    21   ar
     7    21    22   ar
     8    22    23   ar
     9    23    24   ar
    10    24    25    1
    11    25    26    1
    12    26    27    1
    13    27    28    1
    14    27    29    1
    15    27    30    1
    16     2     5    1
    17     5     6   ar
    18     6     7   ar
    19     7     8   ar
    20     8     9   ar
    21     9    11    1
    22    11    12   ar
    23    12    13   ar
    24    13    14   ar
    25    14    15    1
    26    14    16   ar
    27    16    17   ar
    28     9    10   ar
    29    24    19   ar
    30    10     5   ar
    31    17    11   ar
    32     3     4    1
