@<TRIPOS>MOLECULE
*****
 30 34 0 0 0
SMALL
GASTEIGER

@<TRIPOS>ATOM
      1 C         142.7408  140.5293  170.5380 C.ar    1  UNL1        0.1353
      2 C         142.5652  140.4637  169.0498 C.ar    1  UNL1        0.0346
      3 C         141.3589  141.0837  168.4089 C.ar    1  UNL1        0.0058
      4 C         140.3285  141.7692  169.2562 C.ar    1  UNL1        0.0208
      5 C         140.5041  141.8348  170.7445 C.ar    1  UNL1        0.1003
      6 N         141.7103  141.2149  171.3854 N.ar    1  UNL1       -0.2290
      7 C         141.1833  141.0181  166.9206 C.ar    1  UNL1        0.0192
      8 C         140.0729  140.3188  166.1939 C.ar    1  UNL1        0.0801
      9 N         140.2906  140.5088  164.7220 N.ar    1  UNL1       -0.3035
     10 C         141.5355  141.3254  164.5390 C.ar    1  UNL1        0.0832
     11 C         142.2379  141.8231  163.3107 C.ar    1  UNL1        0.1163
     12 N         143.4920  142.6355  163.4412 N.ar    1  UNL1       -0.2408
     13 C         144.0438  142.9502  164.8001 C.ar    1  UNL1        0.0990
     14 C         143.3413  142.4526  166.0284 C.ar    1  UNL1        0.0222
     15 C         142.0872  141.6402  165.8979 C.ar    1  UNL1        0.0206
     16 C         139.4168  139.9757  163.6254 C.ar    1  UNL1        0.0641
     17 C         138.6634  140.9230  162.7393 C.ar    1  UNL1        0.0175
     18 C         137.7896  140.3899  161.6427 C.ar    1  UNL1        0.0015
     19 C         137.6692  138.9097  161.4323 C.ar    1  UNL1        0.0001
     20 C         138.4226  137.9625  162.3184 C.ar    1  UNL1        0.0015
     21 C         139.2964  138.4955  163.4150 C.ar    1  UNL1        0.0175
     22 O         142.9904  137.5437  170.6904 O.2     1  UNL1       -0.2525
     23 C         144.0718  138.4165  171.2550 C.2     1  UNL1        0.3055
     24 N         143.9470  139.9094  171.1789 N.am    1  UNL1       -0.2537
     25 N         145.2780  137.7964  171.8959 N.am    1  UNL1       -0.2903
     26 H         144.6567  140.4822  171.5494 H       1  UNL1        0.1578
     27 H         145.9878  138.3693  172.2665 H       1  UNL1        0.1509
     28 C         145.4028  136.3035  171.9721 C.3     1  UNL1        0.0732
     29 C         146.0619  135.0825  172.5418 C.3     1  UNL1        0.0213
     30 C         144.9599  134.9389  171.5343 C.3     1  UNL1        0.0213
@<TRIPOS>BOND
     1    22    23    2
     2    23    24   am
     3    24     1    1
     4     1     2   ar
     5     2     3   ar
     6     3     7    1
     7     7     8   ar
     8     8     9   ar
     9     9    16    1
    10    16    17   ar
    11    17    18   ar
    12    18    19   ar
    13    19    20   ar
    14    20    21   ar
    15     9    10   ar
    16    10    11   ar
    17    11    12   ar
    18    12    13   ar
    19    13    14   ar
    20    14    15   ar
    21     3     4   ar
    22     4     5   ar
    23     5     6   ar
    24    23    25   am
    25    25    28    1
    26    28    29    1
    27    29    30    1
    28     6     1   ar
    29    30    28    1
    30    15     7   ar
    31    21    16   ar
    32    15    10   ar
    33    24    26    1
    34    25    27    1
@<TRIPOS>MOLECULE
*****
 30 34 0 0 0
SMALL
GASTEIGER

@<TRIPOS>ATOM
      1 C         143.2884  142.3223  169.6080 C.ar    1  UNL1        0.1353
      2 C         142.7490  142.4150  168.2114 C.ar    1  UNL1        0.0346
      3 C         141.3135  142.0765  167.9377 C.ar    1  UNL1        0.0058
      4 C         140.4175  141.6454  169.0607 C.ar    1  UNL1        0.0208
      5 C         140.9568  141.5527  170.4573 C.ar    1  UNL1        0.1003
      6 N         142.3923  141.8912  170.7310 N.ar    1  UNL1       -0.2290
      7 C         140.7741  142.1692  166.5411 C.ar    1  UNL1        0.0192
      8 C         141.0370  143.2785  165.5663 C.ar    1  UNL1        0.0801
      9 N         140.3025  142.9636  164.2969 N.ar    1  UNL1       -0.3035
     10 C         139.5858  141.6598  164.4871 C.ar    1  UNL1        0.0832
     11 C         138.7054  140.8562  163.5766 C.ar    1  UNL1        0.1163
     12 N         138.1165  139.5616  164.0531 N.ar    1  UNL1       -0.2408
     13 C         138.4080  139.0705  165.4402 C.ar    1  UNL1        0.0990
     14 C         139.2884  139.8741  166.3507 C.ar    1  UNL1        0.0222
     15 C         139.8773  141.1687  165.8742 C.ar    1  UNL1        0.0206
     16 C         140.2874  143.8050  163.0551 C.ar    1  UNL1        0.0641
     17 C         140.8923  143.2806  161.7865 C.ar    1  UNL1        0.0175
     18 C         140.8772  144.1220  160.5447 C.ar    1  UNL1        0.0015
     19 C         140.2573  145.4876  160.5716 C.ar    1  UNL1        0.0001
     20 C         139.6524  146.0119  161.8401 C.ar    1  UNL1        0.0015
     21 C         139.6675  145.1706  163.0819 C.ar    1  UNL1        0.0175
     22 O         143.9702  144.6354  171.3925 O.2     1  UNL1       -0.2525
     23 C         145.0647  143.8174  170.7738 C.2     1  UNL1        0.3055
     24 N         144.7238  142.6608  169.8815 N.am    1  UNL1       -0.2537
     25 N         146.5003  144.1559  171.0474 N.am    1  UNL1       -0.2903
     26 H         145.4422  142.1239  169.4755 H       1  UNL1        0.1578
     27 H         147.2187  143.6190  170.6413 H       1  UNL1        0.1509
     28 C         146.8411  145.3125  171.9397 C.3     1  UNL1        0.0732
     29 C         147.4806  145.8465  173.1870 C.3     1  UNL1        0.0213
     30 C         146.7920  146.7818  172.2377 C.3     1  UNL1        0.0213
@<TRIPOS>BOND
     1    22    23    2
     2    23    24   am
     3    24     1    1
     4     1     2   ar
     5     2     3   ar
     6     3     7    1
     7     7     8   ar
     8     8     9   ar
     9     9    16    1
    10    16    17   ar
    11    17    18   ar
    12    18    19   ar
    13    19    20   ar
    14    20    21   ar
    15     9    10   ar
    16    10    11   ar
    17    11    12   ar
    18    12    13   ar
    19    13    14   ar
    20    14    15   ar
    21     3     4   ar
    22     4     5   ar
    23     5     6   ar
    24    23    25   am
    25    25    28    1
    26    28    29    1
    27    29    30    1
    28     6     1   ar
    29    30    28    1
    30    15     7   ar
    31    21    16   ar
    32    15    10   ar
    33    24    26    1
    34    25    27    1
@<TRIPOS>MOLECULE
*****
 30 34 0 0 0
SMALL
GASTEIGER

@<TRIPOS>ATOM
      1 C         140.7499  144.8479  161.3618 C.ar    1  UNL1        0.1353
      2 C         140.8843  143.6402  162.2411 C.ar    1  UNL1        0.0346
      3 C         139.8296  143.3355  163.2633 C.ar    1  UNL1        0.0058
      4 C         138.6405  144.2386  163.4061 C.ar    1  UNL1        0.0208
      5 C         138.5061  145.4464  162.5268 C.ar    1  UNL1        0.1003
      6 N         139.5608  145.7510  161.5047 N.ar    1  UNL1       -0.2290
      7 C         139.9640  142.1277  164.1427 C.ar    1  UNL1        0.0192
      8 C         140.5646  142.1000  165.5169 C.ar    1  UNL1        0.0801
      9 N         140.4932  140.6907  166.0256 N.ar    1  UNL1       -0.3035
     10 C         139.8485  139.8474  164.9658 C.ar    1  UNL1        0.0832
     11 C         139.5170  138.3856  164.9101 C.ar    1  UNL1        0.1163
     12 N         138.8585  137.8118  163.6906 N.ar    1  UNL1       -0.2408
     13 C         138.5315  138.6999  162.5269 C.ar    1  UNL1        0.0990
     14 C         138.8629  140.1618  162.5826 C.ar    1  UNL1        0.0222
     15 C         139.5214  140.7355  163.8020 C.ar    1  UNL1        0.0206
     16 C         140.9809  140.2093  167.3599 C.ar    1  UNL1        0.0641
     17 C         140.1063  140.3438  168.5713 C.ar    1  UNL1        0.0175
     18 C         140.5940  139.8623  169.9056 C.ar    1  UNL1        0.0015
     19 C         141.9561  139.2463  170.0286 C.ar    1  UNL1        0.0001
     20 C         142.8306  139.1118  168.8173 C.ar    1  UNL1        0.0015
     21 C         142.3429  139.5933  167.4830 C.ar    1  UNL1        0.0175
     22 O         140.0846  144.7295  158.4390 O.2     1  UNL1       -0.2525
     23 C         141.4719  145.0933  158.8783 C.2     1  UNL1        0.3055
     24 N         141.8046  145.1525  160.3397 N.am    1  UNL1       -0.2537
     25 N         142.5267  145.3979  157.8560 N.am    1  UNL1       -0.2903
     26 H         142.7151  145.3914  160.6280 H       1  UNL1        0.1578
     27 H         143.4372  145.6367  158.1443 H       1  UNL1        0.1509
     28 C         142.1940  145.3387  156.3946 C.3     1  UNL1        0.0732
     29 C         142.4969  144.8404  155.0125 C.3     1  UNL1        0.0213
     30 C         141.3149  145.7342  155.2453 C.3     1  UNL1        0.0213
@<TRIPOS>BOND
     1    22    23    2
     2    23    24   am
     3    24     1    1
     4     1     2   ar
     5     2     3   ar
     6     3     7    1
     7     7     8   ar
     8     8     9   ar
     9     9    16    1
    10    16    17   ar
    11    17    18   ar
    12    18    19   ar
    13    19    20   ar
    14    20    21   ar
    15     9    10   ar
    16    10    11   ar
    17    11    12   ar
    18    12    13   ar
    19    13    14   ar
    20    14    15   ar
    21     3     4   ar
    22     4     5   ar
    23     5     6   ar
    24    23    25   am
    25    25    28    1
    26    28    29    1
    27    29    30    1
    28     6     1   ar
    29    30    28    1
    30    15     7   ar
    31    21    16   ar
    32    15    10   ar
    33    24    26    1
    34    25    27    1
@<TRIPOS>MOLECULE
*****
 30 34 0 0 0
SMALL
GASTEIGER

@<TRIPOS>ATOM
      1 C         136.4557  140.7445  156.0628 C.ar    1  UNL1        0.1353
      2 C         136.9848  141.6471  157.1377 C.ar    1  UNL1        0.0346
      3 C         138.3920  141.4819  157.6303 C.ar    1  UNL1        0.0058
      4 C         139.2699  140.4142  157.0481 C.ar    1  UNL1        0.0208
      5 C         138.7408  139.5116  155.9732 C.ar    1  UNL1        0.1003
      6 N         137.3337  139.6768  155.4805 N.ar    1  UNL1       -0.2290
      7 C         138.9211  142.3845  158.7052 C.ar    1  UNL1        0.0192
      8 C         138.5315  142.3536  160.1534 C.ar    1  UNL1        0.0801
      9 N         139.3023  143.4264  160.8638 N.ar    1  UNL1       -0.3035
     10 C         140.1685  144.1204  159.8547 C.ar    1  UNL1        0.0832
     11 C         141.1412  145.2555  159.9783 C.ar    1  UNL1        0.1163
     12 N         141.8783  145.7466  158.7678 N.ar    1  UNL1       -0.2408
     13 C         141.6427  145.1026  157.4337 C.ar    1  UNL1        0.0990
     14 C         140.6700  143.9676  157.3101 C.ar    1  UNL1        0.0222
     15 C         139.9328  143.4764  158.5206 C.ar    1  UNL1        0.0206
     16 C         139.2214  143.7488  162.3265 C.ar    1  UNL1        0.0641
     17 C         140.4781  143.9153  163.1285 C.ar    1  UNL1        0.0175
     18 C         140.3971  144.2376  164.5913 C.ar    1  UNL1        0.0015
     19 C         139.0595  144.3934  165.2520 C.ar    1  UNL1        0.0001
     20 C         137.8029  144.2269  164.4500 C.ar    1  UNL1        0.0015
     21 C         137.8839  143.9046  162.9873 C.ar    1  UNL1        0.0175
     22 O         134.1978  139.3748  157.4861 O.2     1  UNL1       -0.2525
     23 C         133.9196  140.2249  156.2819 C.2     1  UNL1        0.3055
     24 N         135.0486  140.9097  155.5703 N.am    1  UNL1       -0.2537
     25 N         132.5124  140.3900  155.7894 N.am    1  UNL1       -0.2903
     26 H         134.8660  141.4676  154.7799 H       1  UNL1        0.1578
     27 H         132.3297  140.9479  154.9990 H       1  UNL1        0.1509
     28 C         131.3834  139.7052  156.5011 C.3     1  UNL1        0.0732
     29 C         130.0398  139.7650  157.1652 C.3     1  UNL1        0.0213
     30 C         130.7717  138.4592  157.0696 C.3     1  UNL1        0.0213
@<TRIPOS>BOND
     1    22    23    2
     2    23    24   am
     3    24     1    1
     4     1     2   ar
     5     2     3   ar
     6     3     7    1
     7     7     8   ar
     8     8     9   ar
     9     9    16    1
    10    16    17   ar
    11    17    18   ar
    12    18    19   ar
    13    19    20   ar
    14    20    21   ar
    15     9    10   ar
    16    10    11   ar
    17    11    12   ar
    18    12    13   ar
    19    13    14   ar
    20    14    15   ar
    21     3     4   ar
    22     4     5   ar
    23     5     6   ar
    24    23    25   am
    25    25    28    1
    26    28    29    1
    27    29    30    1
    28     6     1   ar
    29    30    28    1
    30    15     7   ar
    31    21    16   ar
    32    15    10   ar
    33    24    26    1
    34    25    27    1
@<TRIPOS>MOLECULE
*****
 30 34 0 0 0
SMALL
GASTEIGER

@<TRIPOS>ATOM
      1 C         140.8589  145.0473  161.4641 C.ar    1  UNL1        0.1353
      2 C         141.3677  144.1384  162.5434 C.ar    1  UNL1        0.0346
      3 C         140.4395  143.6599  163.6204 C.ar    1  UNL1        0.0058
      4 C         139.0027  144.0905  163.6179 C.ar    1  UNL1        0.0208
      5 C         138.4939  144.9994  162.5386 C.ar    1  UNL1        0.1003
      6 N         139.4220  145.4779  161.4617 N.ar    1  UNL1       -0.2290
      7 C         140.9483  142.7509  164.6997 C.ar    1  UNL1        0.0192
      8 C         140.6337  142.8568  166.1625 C.ar    1  UNL1        0.0801
      9 N         141.3520  141.7478  166.8725 N.ar    1  UNL1       -0.3035
     10 C         142.1106  140.9566  165.8485 C.ar    1  UNL1        0.0832
     11 C         142.9963  139.7516  165.9654 C.ar    1  UNL1        0.1163
     12 N         143.6324  139.1667  164.7394 N.ar    1  UNL1       -0.2408
     13 C         143.3829  139.7867  163.3965 C.ar    1  UNL1        0.0990
     14 C         142.4973  140.9916  163.2796 C.ar    1  UNL1        0.0222
     15 C         141.8611  141.5765  164.5056 C.ar    1  UNL1        0.0206
     16 C         141.3178  141.4775  168.3475 C.ar    1  UNL1        0.0641
     17 C         140.4581  140.3733  168.8879 C.ar    1  UNL1        0.0175
     18 C         140.4238  140.1030  170.3630 C.ar    1  UNL1        0.0015
     19 C         141.2492  140.9367  171.2976 C.ar    1  UNL1        0.0001
     20 C         142.1089  142.0407  170.7572 C.ar    1  UNL1        0.0015
     21 C         142.1431  142.3111  169.2822 C.ar    1  UNL1        0.0175
     22 O         140.2466  144.4605  158.5865 O.2     1  UNL1       -0.2525
     23 C         141.4808  145.2323  158.9484 C.2     1  UNL1        0.3055
     24 N         141.7870  145.5257  160.3872 N.am    1  UNL1       -0.2537
     25 N         142.4090  145.7107  157.8714 N.am    1  UNL1       -0.2903
     26 H         142.5971  146.0323  160.6248 H       1  UNL1        0.1578
     27 H         143.2191  146.2172  158.1089 H       1  UNL1        0.1509
     28 C         142.1028  145.4172  156.4326 C.3     1  UNL1        0.0732
     29 C         142.5433  144.9305  155.0839 C.3     1  UNL1        0.0213
     30 C         141.1321  145.3957  155.2893 C.3     1  UNL1        0.0213
@<TRIPOS>BOND
     1    22    23    2
     2    23    24   am
     3    24     1    1
     4     1     2   ar
     5     2     3   ar
     6     3     7    1
     7     7     8   ar
     8     8     9   ar
     9     9    16    1
    10    16    17   ar
    11    17    18   ar
    12    18    19   ar
    13    19    20   ar
    14    20    21   ar
    15     9    10   ar
    16    10    11   ar
    17    11    12   ar
    18    12    13   ar
    19    13    14   ar
    20    14    15   ar
    21     3     4   ar
    22     4     5   ar
    23     5     6   ar
    24    23    25   am
    25    25    28    1
    26    28    29    1
    27    29    30    1
    28     6     1   ar
    29    30    28    1
    30    15     7   ar
    31    21    16   ar
    32    15    10   ar
    33    24    26    1
    34    25    27    1
@<TRIPOS>MOLECULE
*****
 30 34 0 0 0
SMALL
GASTEIGER

@<TRIPOS>ATOM
      1 C         142.1076  144.2791  160.1346 C.ar    1  UNL1        0.1353
      2 C         141.6033  143.9250  161.5021 C.ar    1  UNL1        0.0346
      3 C         142.1164  142.6982  162.1964 C.ar    1  UNL1        0.0058
      4 C         143.1337  141.8257  161.5229 C.ar    1  UNL1        0.0208
      5 C         143.6380  142.1798  160.1553 C.ar    1  UNL1        0.1003
      6 N         143.1250  143.4065  159.4612 N.ar    1  UNL1       -0.2290
      7 C         141.6120  142.3441  163.5639 C.ar    1  UNL1        0.0192
      8 C         142.1759  142.8323  164.8653 C.ar    1  UNL1        0.0801
      9 N         141.3676  142.2295  165.9759 N.ar    1  UNL1       -0.3035
     10 C         140.3042  141.3687  165.3608 C.ar    1  UNL1        0.0832
     11 C         139.2179  140.5296  165.9656 C.ar    1  UNL1        0.1163
     12 N         138.2827  139.7613  165.0796 N.ar    1  UNL1       -0.2408
     13 C         138.4337  139.8321  163.5889 C.ar    1  UNL1        0.0990
     14 C         139.5201  140.6712  162.9842 C.ar    1  UNL1        0.0222
     15 C         140.4553  141.4395  163.8701 C.ar    1  UNL1        0.0206
     16 C         141.5846  142.4490  167.4438 C.ar    1  UNL1        0.0641
     17 C         142.8872  142.0571  168.0763 C.ar    1  UNL1        0.0175
     18 C         143.1041  142.2766  169.5442 C.ar    1  UNL1        0.0015
     19 C         142.0187  142.8878  170.3797 C.ar    1  UNL1        0.0001
     20 C         140.7162  143.2797  169.7472 C.ar    1  UNL1        0.0015
     21 C         140.4992  143.0602  168.2793 C.ar    1  UNL1        0.0175
     22 O         140.7136  144.0334  157.4896 O.2     1  UNL1       -0.2525
     23 C         140.8975  145.3830  158.1179 C.2     1  UNL1        0.3055
     24 N         141.5945  145.5059  159.4405 N.am    1  UNL1       -0.2537
     25 N         140.3843  146.6098  157.4237 N.am    1  UNL1       -0.2903
     26 H         141.7152  146.3916  159.8529 H       1  UNL1        0.1578
     27 H         140.5050  147.4955  157.8361 H       1  UNL1        0.1509
     28 C         139.6873  146.4869  156.1012 C.3     1  UNL1        0.0732
     29 C         138.4584  146.1592  155.3060 C.3     1  UNL1        0.0213
     30 C         139.7090  146.6018  154.6058 C.3     1  UNL1        0.0213
@<TRIPOS>BOND
     1    22    23    2
     2    23    24   am
     3    24     1    1
     4     1     2   ar
     5     2     3   ar
     6     3     7    1
     7     7     8   ar
     8     8     9   ar
     9     9    16    1
    10    16    17   ar
    11    17    18   ar
    12    18    19   ar
    13    19    20   ar
    14    20    21   ar
    15     9    10   ar
    16    10    11   ar
    17    11    12   ar
    18    12    13   ar
    19    13    14   ar
    20    14    15   ar
    21     3     4   ar
    22     4     5   ar
    23     5     6   ar
    24    23    25   am
    25    25    28    1
    26    28    29    1
    27    29    30    1
    28     6     1   ar
    29    30    28    1
    30    15     7   ar
    31    21    16   ar
    32    15    10   ar
    33    24    26    1
    34    25    27    1
@<TRIPOS>MOLECULE
*****
 30 34 0 0 0
SMALL
GASTEIGER

@<TRIPOS>ATOM
      1 C         143.8362  140.8105  160.5920 C.ar    1  UNL1        0.1353
      2 C         143.1609  141.0476  161.9102 C.ar    1  UNL1        0.0346
      3 C         142.8130  139.8867  162.7943 C.ar    1  UNL1        0.0058
      4 C         143.1405  138.4889  162.3601 C.ar    1  UNL1        0.0208
      5 C         143.8159  138.2517  161.0418 C.ar    1  UNL1        0.1003
      6 N         144.1637  139.4126  160.1578 N.ar    1  UNL1       -0.2290
      7 C         142.1377  140.1238  164.1125 C.ar    1  UNL1        0.0192
      8 C         142.5989  141.0691  165.1820 C.ar    1  UNL1        0.0801
      9 N         141.6288  140.9868  166.3231 N.ar    1  UNL1       -0.3035
     10 C         140.5682  139.9906  165.9590 C.ar    1  UNL1        0.0832
     11 C         139.3566  139.5002  166.6949 C.ar    1  UNL1        0.1163
     12 N         138.4596  138.4765  166.0646 N.ar    1  UNL1       -0.2408
     13 C         138.7741  137.9431  164.6983 C.ar    1  UNL1        0.0990
     14 C         139.9857  138.4335  163.9624 C.ar    1  UNL1        0.0222
     15 C         140.8827  139.4572  164.5927 C.ar    1  UNL1        0.0206
     16 C         141.7059  141.7641  167.6037 C.ar    1  UNL1        0.0641
     17 C         140.5448  142.6078  168.0399 C.ar    1  UNL1        0.0175
     18 C         140.6218  143.3852  169.3205 C.ar    1  UNL1        0.0015
     19 C         141.8599  143.3189  170.1648 C.ar    1  UNL1        0.0001
     20 C         143.0209  142.4752  169.7285 C.ar    1  UNL1        0.0015
     21 C         142.9438  141.6979  168.4480 C.ar    1  UNL1        0.0175
     22 O         141.6622  142.3448  159.2065 O.2     1  UNL1       -0.2525
     23 C         143.0969  142.7385  159.0153 C.2     1  UNL1        0.3055
     24 N         144.1840  141.9713  159.7080 N.am    1  UNL1       -0.2537
     25 N         143.4447  143.8994  158.1313 N.am    1  UNL1       -0.2903
     26 H         145.1256  142.2297  159.5825 H       1  UNL1        0.1578
     27 H         144.3863  144.1579  158.0057 H       1  UNL1        0.1509
     28 C         142.3576  144.6666  157.4385 C.3     1  UNL1        0.0732
     29 C         141.3443  144.7770  156.3381 C.3     1  UNL1        0.0213
     30 C         141.4883  145.8849  157.3391 C.3     1  UNL1        0.0213
@<TRIPOS>BOND
     1    22    23    2
     2    23    24   am
     3    24     1    1
     4     1     2   ar
     5     2     3   ar
     6     3     7    1
     7     7     8   ar
     8     8     9   ar
     9     9    16    1
    10    16    17   ar
    11    17    18   ar
    12    18    19   ar
    13    19    20   ar
    14    20    21   ar
    15     9    10   ar
    16    10    11   ar
    17    11    12   ar
    18    12    13   ar
    19    13    14   ar
    20    14    15   ar
    21     3     4   ar
    22     4     5   ar
    23     5     6   ar
    24    23    25   am
    25    25    28    1
    26    28    29    1
    27    29    30    1
    28     6     1   ar
    29    30    28    1
    30    15     7   ar
    31    21    16   ar
    32    15    10   ar
    33    24    26    1
    34    25    27    1
@<TRIPOS>MOLECULE
*****
 30 34 0 0 0
SMALL
GASTEIGER

@<TRIPOS>ATOM
      1 C         142.5135  143.7577  161.0656 C.ar    1  UNL1        0.1353
      2 C         141.8192  142.9850  162.1477 C.ar    1  UNL1        0.0346
      3 C         142.4816  141.7837  162.7546 C.ar    1  UNL1        0.0058
      4 C         143.8381  141.3552  162.2793 C.ar    1  UNL1        0.0208
      5 C         144.5324  142.1279  161.1972 C.ar    1  UNL1        0.1003
      6 N         143.8701  143.3291  160.5904 N.ar    1  UNL1       -0.2290
      7 C         141.7873  141.0110  163.8366 C.ar    1  UNL1        0.0192
      8 C         141.9431  141.2267  165.3128 C.ar    1  UNL1        0.0801
      9 N         141.0673  140.2359  166.0210 N.ar    1  UNL1       -0.3035
     10 C         140.3703  139.4079  164.9824 C.ar    1  UNL1        0.0832
     11 C         139.3880  138.2796  165.0916 C.ar    1  UNL1        0.1163
     12 N         138.8506  137.6304  163.8508 N.ar    1  UNL1       -0.2408
     13 C         139.2955  138.1094  162.5008 C.ar    1  UNL1        0.0990
     14 C         140.2778  139.2377  162.3916 C.ar    1  UNL1        0.0222
     15 C         140.8152  139.8869  163.6324 C.ar    1  UNL1        0.0206
     16 C         140.9153  140.0974  167.5068 C.ar    1  UNL1        0.0641
     17 C         139.6004  140.4083  168.1584 C.ar    1  UNL1        0.0175
     18 C         139.4483  140.2698  169.6443 C.ar    1  UNL1        0.0015
     19 C         140.6111  139.8205  170.4785 C.ar    1  UNL1        0.0001
     20 C         141.9260  139.5096  169.8269 C.ar    1  UNL1        0.0015
     21 C         142.0780  139.6481  168.3411 C.ar    1  UNL1        0.0175
     22 O         141.6520  143.7043  158.1926 O.2     1  UNL1       -0.2525
     23 C         141.4204  144.9322  159.0223 C.2     1  UNL1        0.3055
     24 N         141.8511  144.9590  160.4589 N.am    1  UNL1       -0.2537
     25 N         140.7579  146.1335  158.4154 N.am    1  UNL1       -0.2903
     26 H         141.6991  145.7649  161.0035 H       1  UNL1        0.1578
     27 H         140.6059  146.9395  158.9600 H       1  UNL1        0.1509
     28 C         140.3272  146.1068  156.9789 C.3     1  UNL1        0.0732
     29 C         140.6725  146.0712  155.5196 C.3     1  UNL1        0.0213
     30 C         139.2358  146.0961  155.9499 C.3     1  UNL1        0.0213
@<TRIPOS>BOND
     1    22    23    2
     2    23    24   am
     3    24     1    1
     4     1     2   ar
     5     2     3   ar
     6     3     7    1
     7     7     8   ar
     8     8     9   ar
     9     9    16    1
    10    16    17   ar
    11    17    18   ar
    12    18    19   ar
    13    19    20   ar
    14    20    21   ar
    15     9    10   ar
    16    10    11   ar
    17    11    12   ar
    18    12    13   ar
    19    13    14   ar
    20    14    15   ar
    21     3     4   ar
    22     4     5   ar
    23     5     6   ar
    24    23    25   am
    25    25    28    1
    26    28    29    1
    27    29    30    1
    28     6     1   ar
    29    30    28    1
    30    15     7   ar
    31    21    16   ar
    32    15    10   ar
    33    24    26    1
    34    25    27    1
@<TRIPOS>MOLECULE
*****
 30 34 0 0 0
SMALL
GASTEIGER

@<TRIPOS>ATOM
      1 C         140.8001  138.4807  161.2380 C.ar    1  UNL1        0.1353
      2 C         140.9581  139.5234  162.3047 C.ar    1  UNL1        0.0346
      3 C         139.8205  139.8222  163.2357 C.ar    1  UNL1        0.0058
      4 C         138.5252  139.0783  163.1000 C.ar    1  UNL1        0.0208
      5 C         138.3672  138.0356  162.0334 C.ar    1  UNL1        0.1003
      6 N         139.5047  137.7368  161.1023 N.ar    1  UNL1       -0.2290
      7 C         139.9785  140.8649  164.3024 C.ar    1  UNL1        0.0192
      8 C         140.8159  140.7398  165.5406 C.ar    1  UNL1        0.0801
      9 N         140.6817  142.0134  166.3215 N.ar    1  UNL1       -0.3035
     10 C         139.7614  142.9257  165.5661 C.ar    1  UNL1        0.0832
     11 C         139.2629  144.3110  165.8532 C.ar    1  UNL1        0.1163
     12 N         138.3299  144.9864  164.8925 N.ar    1  UNL1       -0.2408
     13 C         137.8952  144.2766  163.6445 C.ar    1  UNL1        0.0990
     14 C         138.3937  142.8913  163.3574 C.ar    1  UNL1        0.0222
     15 C         139.3267  142.2159  164.3181 C.ar    1  UNL1        0.0206
     16 C         141.3504  142.3208  167.6286 C.ar    1  UNL1        0.0641
     17 C         142.8099  142.0263  167.8119 C.ar    1  UNL1        0.0175
     18 C         143.4786  142.3337  169.1189 C.ar    1  UNL1        0.0015
     19 C         142.6880  142.9356  170.2426 C.ar    1  UNL1        0.0001
     20 C         141.2287  143.2302  170.0592 C.ar    1  UNL1        0.0015
     21 C         140.5600  142.9228  168.7522 C.ar    1  UNL1        0.0175
     22 O         141.3460  140.2897  158.9080 O.2     1  UNL1       -0.2525
     23 C         142.2106  139.0865  159.1420 C.2     1  UNL1        0.3055
     24 N         141.9376  138.1819  160.3070 N.am    1  UNL1       -0.2537
     25 N         143.3482  138.7878  158.2109 N.am    1  UNL1       -0.2903
     26 H         142.5051  137.3922  160.4606 H       1  UNL1        0.1578
     27 H         143.9156  137.9980  158.3645 H       1  UNL1        0.1509
     28 C         143.6211  139.6923  157.0459 C.3     1  UNL1        0.0732
     29 C         143.1243  140.4955  155.8806 C.3     1  UNL1        0.0213
     30 C         144.5908  140.4559  156.1934 C.3     1  UNL1        0.0213
@<TRIPOS>BOND
     1    22    23    2
     2    23    24   am
     3    24     1    1
     4     1     2   ar
     5     2     3   ar
     6     3     7    1
     7     7     8   ar
     8     8     9   ar
     9     9    16    1
    10    16    17   ar
    11    17    18   ar
    12    18    19   ar
    13    19    20   ar
    14    20    21   ar
    15     9    10   ar
    16    10    11   ar
    17    11    12   ar
    18    12    13   ar
    19    13    14   ar
    20    14    15   ar
    21     3     4   ar
    22     4     5   ar
    23     5     6   ar
    24    23    25   am
    25    25    28    1
    26    28    29    1
    27    29    30    1
    28     6     1   ar
    29    30    28    1
    30    15     7   ar
    31    21    16   ar
    32    15    10   ar
    33    24    26    1
    34    25    27    1
