@<TRIPOS>MOLECULE
*****
 32 35 0 0 0
SMALL
GASTEIGER

@<TRIPOS>ATOM
      1 C         139.6154  141.3654  161.2406 C.ar    1  UNL1        0.1738
      2 C         139.6954  140.7072  162.5860 C.ar    1  UNL1        0.0576
      3 C         138.9590  141.2946  163.7533 C.ar    1  UNL1        0.0702
      4 C         138.1426  142.5403  163.5752 C.ar    1  UNL1        0.0209
      5 C         138.0626  143.1985  162.2297 C.ar    1  UNL1        0.0415
      6 C         138.7990  142.6111  161.0624 C.ar    1  UNL1        0.1724
      7 N         139.0390  140.6364  165.0989 N.ar    1  UNL1       -0.2705
      8 C         137.9944  139.6417  165.5105 C.ar    1  UNL1        0.1036
      9 C         138.0744  138.9835  166.8559 C.ar    1  UNL1        0.1177
     10 N         139.1990  139.3198  167.7898 N.ar    1  UNL1       -0.2418
     11 C         140.2437  140.3144  167.3782 C.ar    1  UNL1        0.1153
     12 C         140.1637  140.9727  166.0327 C.ar    1  UNL1        0.2783
     13 O         141.2083  141.9673  165.6210 O.2     1  UNL1       -0.2653
     14 C         141.3683  140.6508  168.3120 C.3     1  UNL1        0.0511
     15 C         142.7615  140.1869  168.0058 C.3     1  UNL1        0.0111
     16 C         142.9809  138.8628  167.3359 C.3     1  UNL1        0.0268
     17 C         143.0749  138.7851  165.8409 C.ar    1  UNL1       -0.0222
     18 C         142.0294  138.0442  165.0612 C.ar    1  UNL1       -0.0043
     19 C         142.1233  137.9665  163.5662 C.ar    1  UNL1       -0.0003
     20 C         143.2628  138.6298  162.8508 C.ar    1  UNL1       -0.0000
     21 C         144.3083  139.3707  163.6305 C.ar    1  UNL1       -0.0003
     22 C         144.2143  139.4484  165.1256 C.ar    1  UNL1       -0.0043
     23 C         140.9635  139.4127  160.1824 C.3     1  UNL1        0.2526
     24 O         140.3518  140.7779  160.0733 O.3     1  UNL1       -0.4683
     25 O         138.7190  143.2694  159.7169 O.3     1  UNL1       -0.4709
     26 C         139.8628  144.1033  159.2207 C.3     1  UNL1        0.2228
     27 C         140.3370  145.2790  160.0226 C.3     1  UNL1        0.1200
     28 N         141.0562  145.0606  161.3206 N.3     1  UNL1       -0.2696
     29 C         142.2278  144.1491  161.5370 C.3     1  UNL1        0.0722
     30 C         142.6258  144.2405  162.9803 C.3     1  UNL1        0.0188
     31 C         141.7001  145.2083  163.6560 C.3     1  UNL1        0.0188
     32 C         140.7301  145.7152  162.6303 C.3     1  UNL1        0.0722
@<TRIPOS>BOND
     1    23    24    1
     2    24     1    1
     3     1     2   ar
     4     2     3   ar
     5     3     7    1
     6     7     8   ar
     7     8     9   ar
     8     9    10   ar
     9    10    11   ar
    10    11    14    1
    11    14    15    1
    12    15    16    1
    13    16    17    1
    14    17    18   ar
    15    18    19   ar
    16    19    20   ar
    17    20    21   ar
    18    21    22   ar
    19    11    12   ar
    20    12    13    2
    21     3     4   ar
    22     4     5   ar
    23     5     6   ar
    24     6    25    1
    25    25    26    1
    26    26    27    1
    27    27    28    1
    28    28    29    1
    29    29    30    1
    30    30    31    1
    31    31    32    1
    32     6     1   ar
    33    32    28    1
    34    12     7   ar
    35    22    17   ar
@<TRIPOS>MOLECULE
*****
 32 35 0 0 0
SMALL
GASTEIGER

@<TRIPOS>ATOM
      1 C         137.8916  140.1733  163.1888 C.ar    1  UNL1        0.1738
      2 C         138.2600  140.3585  164.6310 C.ar    1  UNL1        0.0576
      3 C         138.9293  139.2464  165.3829 C.ar    1  UNL1        0.0702
      4 C         139.2301  137.9491  164.6926 C.ar    1  UNL1        0.0209
      5 C         138.8616  137.7639  163.2505 C.ar    1  UNL1        0.0415
      6 C         138.1924  138.8760  162.4985 C.ar    1  UNL1        0.1724
      7 N         139.2977  139.4317  166.8251 N.ar    1  UNL1       -0.2705
      8 C         138.2231  139.5315  167.8669 C.ar    1  UNL1        0.1036
      9 C         138.5915  139.7167  169.3090 C.ar    1  UNL1        0.1177
     10 N         140.0346  139.8022  169.7095 N.ar    1  UNL1       -0.2418
     11 C         141.1092  139.7025  168.6678 C.ar    1  UNL1        0.1153
     12 C         140.7407  139.5172  167.2256 C.ar    1  UNL1        0.2783
     13 O         141.8153  139.4174  166.1838 O.2     1  UNL1       -0.2653
     14 C         142.5522  139.7880  169.0682 C.3     1  UNL1        0.0511
     15 C         143.1409  141.1064  169.4744 C.3     1  UNL1        0.0111
     16 C         142.5115  142.3850  169.0061 C.3     1  UNL1        0.0268
     17 C         142.2208  142.5880  167.5487 C.ar    1  UNL1       -0.0222
     18 C         143.3285  142.4896  166.5421 C.ar    1  UNL1       -0.0043
     19 C         143.0378  142.6926  165.0846 C.ar    1  UNL1       -0.0003
     20 C         141.6392  142.9940  164.6337 C.ar    1  UNL1       -0.0000
     21 C         140.5315  143.0924  165.6403 C.ar    1  UNL1       -0.0003
     22 C         140.8223  142.8894  167.0978 C.ar    1  UNL1       -0.0043
     23 C         137.9538  142.5720  162.1925 C.3     1  UNL1        0.2526
     24 O         137.2224  141.2854  162.4369 O.3     1  UNL1       -0.4683
     25 O         137.8239  138.6907  161.0563 O.3     1  UNL1       -0.4709
     26 C         138.6924  139.2712  159.9798 C.3     1  UNL1        0.2228
     27 C         140.0829  138.7476  159.7742 C.3     1  UNL1        0.1200
     28 N         141.1145  138.9163  160.8500 N.3     1  UNL1       -0.2696
     29 C         142.0596  137.8590  161.3388 C.3     1  UNL1        0.0722
     30 C         142.9114  138.4611  162.4168 C.3     1  UNL1        0.0188
     31 C         142.4927  139.8906  162.5941 C.3     1  UNL1        0.0188
     32 C         141.3822  140.1719  161.6258 C.3     1  UNL1        0.0722
@<TRIPOS>BOND
     1    23    24    1
     2    24     1    1
     3     1     2   ar
     4     2     3   ar
     5     3     7    1
     6     7     8   ar
     7     8     9   ar
     8     9    10   ar
     9    10    11   ar
    10    11    14    1
    11    14    15    1
    12    15    16    1
    13    16    17    1
    14    17    18   ar
    15    18    19   ar
    16    19    20   ar
    17    20    21   ar
    18    21    22   ar
    19    11    12   ar
    20    12    13    2
    21     3     4   ar
    22     4     5   ar
    23     5     6   ar
    24     6    25    1
    25    25    26    1
    26    26    27    1
    27    27    28    1
    28    28    29    1
    29    29    30    1
    30    30    31    1
    31    31    32    1
    32     6     1   ar
    33    32    28    1
    34    12     7   ar
    35    22    17   ar
@<TRIPOS>MOLECULE
*****
 32 35 0 0 0
SMALL
GASTEIGER

@<TRIPOS>ATOM
      1 C         138.9841  142.7305  161.4280 C.ar    1  UNL1        0.1738
      2 C         140.1222  142.6469  162.4015 C.ar    1  UNL1        0.0576
      3 C         141.5356  142.7746  161.9157 C.ar    1  UNL1        0.0702
      4 C         141.8109  142.9859  160.4564 C.ar    1  UNL1        0.0209
      5 C         140.6728  143.0696  159.4830 C.ar    1  UNL1        0.0415
      6 C         139.2594  142.9419  159.9688 C.ar    1  UNL1        0.1724
      7 N         142.6737  142.6909  162.8893 N.ar    1  UNL1       -0.2705
      8 C         143.1242  143.9188  163.6237 C.ar    1  UNL1        0.1036
      9 C         144.2622  143.8352  164.5972 C.ar    1  UNL1        0.1177
     10 N         144.9499  142.5237  164.8363 N.ar    1  UNL1       -0.2418
     11 C         144.4994  141.2958  164.1019 C.ar    1  UNL1        0.1153
     12 C         143.3613  141.3794  163.1283 C.ar    1  UNL1        0.2783
     13 O         142.9109  140.1516  162.3939 O.2     1  UNL1       -0.2653
     14 C         145.1871  139.9843  164.3409 C.3     1  UNL1        0.0511
     15 C         144.4674  138.8796  165.0562 C.3     1  UNL1        0.0111
     16 C         143.3549  139.2030  166.0091 C.3     1  UNL1        0.0268
     17 C         141.9323  138.9255  165.6231 C.ar    1  UNL1       -0.0222
     18 C         140.8341  139.8236  166.1103 C.ar    1  UNL1       -0.0043
     19 C         139.4115  139.5462  165.7242 C.ar    1  UNL1       -0.0003
     20 C         139.0869  138.3706  164.8509 C.ar    1  UNL1       -0.0000
     21 C         140.1851  137.4725  164.3636 C.ar    1  UNL1       -0.0003
     22 C         141.6078  137.7500  164.7497 C.ar    1  UNL1       -0.0043
     23 C         137.2909  141.9928  163.2553 C.3     1  UNL1        0.2526
     24 O         137.5707  142.6028  161.9138 O.3     1  UNL1       -0.4683
     25 O         138.1213  143.0255  158.9952 O.3     1  UNL1       -0.4709
     26 C         138.0970  142.1314  157.7911 C.3     1  UNL1        0.2228
     27 C         137.6762  140.6983  157.9294 C.3     1  UNL1        0.1200
     28 N         138.0848  139.9100  159.1384 N.3     1  UNL1       -0.2696
     29 C         137.2362  139.6456  160.3467 C.3     1  UNL1        0.0722
     30 C         138.0406  138.8198  161.3064 C.3     1  UNL1        0.0188
     31 C         139.3864  138.5739  160.6912 C.3     1  UNL1        0.0188
     32 C         139.4136  139.2477  159.3513 C.3     1  UNL1        0.0722
@<TRIPOS>BOND
     1    23    24    1
     2    24     1    1
     3     1     2   ar
     4     2     3   ar
     5     3     7    1
     6     7     8   ar
     7     8     9   ar
     8     9    10   ar
     9    10    11   ar
    10    11    14    1
    11    14    15    1
    12    15    16    1
    13    16    17    1
    14    17    18   ar
    15    18    19   ar
    16    19    20   ar
    17    20    21   ar
    18    21    22   ar
    19    11    12   ar
    20    12    13    2
    21     3     4   ar
    22     4     5   ar
    23     5     6   ar
    24     6    25    1
    25    25    26    1
    26    26    27    1
    27    27    28    1
    28    28    29    1
    29    29    30    1
    30    30    31    1
    31    31    32    1
    32     6     1   ar
    33    32    28    1
    34    12     7   ar
    35    22    17   ar
@<TRIPOS>MOLECULE
*****
 32 35 0 0 0
SMALL
GASTEIGER

@<TRIPOS>ATOM
      1 C         140.2168  141.5057  161.3699 C.ar    1  UNL1        0.1738
      2 C         140.1111  140.8175  162.6984 C.ar    1  UNL1        0.0576
      3 C         138.9948  141.1669  163.6374 C.ar    1  UNL1        0.0702
      4 C         137.9841  142.2045  163.2479 C.ar    1  UNL1        0.0209
      5 C         138.0898  142.8927  161.9193 C.ar    1  UNL1        0.0415
      6 C         139.2061  142.5433  160.9803 C.ar    1  UNL1        0.1724
      7 N         138.8891  140.4785  164.9660 N.ar    1  UNL1       -0.2705
      8 C         138.1802  139.1611  165.0739 C.ar    1  UNL1        0.1036
      9 C         138.0746  138.4728  166.4024 C.ar    1  UNL1        0.1177
     10 N         138.6779  139.1019  167.6232 N.ar    1  UNL1       -0.2418
     11 C         139.3868  140.4194  167.5153 C.ar    1  UNL1        0.1153
     12 C         139.4924  141.1077  166.1867 C.ar    1  UNL1        0.2783
     13 O         140.2014  142.4252  166.0789 O.2     1  UNL1       -0.2653
     14 C         139.9901  141.0486  168.7360 C.3     1  UNL1        0.0511
     15 C         141.1573  140.3971  169.4165 C.3     1  UNL1        0.0111
     16 C         142.5491  140.6349  168.9100 C.3     1  UNL1        0.0268
     17 C         142.8971  140.3032  167.4892 C.ar    1  UNL1       -0.0222
     18 C         142.9563  138.8714  167.0461 C.ar    1  UNL1       -0.0043
     19 C         143.3042  138.5397  165.6253 C.ar    1  UNL1       -0.0003
     20 C         143.5930  139.6399  164.6474 C.ar    1  UNL1       -0.0000
     21 C         143.5339  141.0717  165.0904 C.ar    1  UNL1       -0.0003
     22 C         143.1859  141.4034  166.5114 C.ar    1  UNL1       -0.0043
     23 C         141.1283  140.1053  159.3804 C.3     1  UNL1        0.2526
     24 O         141.3331  141.1563  160.4309 O.3     1  UNL1       -0.4683
     25 O         139.3117  143.2316  159.6517 O.3     1  UNL1       -0.4709
     26 C         140.0306  144.5435  159.5417 C.3     1  UNL1        0.2228
     27 C         141.4495  144.6631  160.0137 C.3     1  UNL1        0.1200
     28 N         141.7492  144.7167  161.4824 N.3     1  UNL1       -0.2696
     29 C         140.9149  145.3948  162.5285 C.3     1  UNL1        0.0722
     30 C         141.5860  145.1989  163.8555 C.3     1  UNL1        0.0188
     31 C         142.8352  144.3996  163.6297 C.3     1  UNL1        0.0188
     32 C         142.9360  144.1016  162.1631 C.3     1  UNL1        0.0722
@<TRIPOS>BOND
     1    23    24    1
     2    24     1    1
     3     1     2   ar
     4     2     3   ar
     5     3     7    1
     6     7     8   ar
     7     8     9   ar
     8     9    10   ar
     9    10    11   ar
    10    11    14    1
    11    14    15    1
    12    15    16    1
    13    16    17    1
    14    17    18   ar
    15    18    19   ar
    16    19    20   ar
    17    20    21   ar
    18    21    22   ar
    19    11    12   ar
    20    12    13    2
    21     3     4   ar
    22     4     5   ar
    23     5     6   ar
    24     6    25    1
    25    25    26    1
    26    26    27    1
    27    27    28    1
    28    28    29    1
    29    29    30    1
    30    30    31    1
    31    31    32    1
    32     6     1   ar
    33    32    28    1
    34    12     7   ar
    35    22    17   ar
@<TRIPOS>MOLECULE
*****
 32 35 0 0 0
SMALL
GASTEIGER

@<TRIPOS>ATOM
      1 C         142.7331  143.3978  161.4057 C.ar    1  UNL1        0.1738
      2 C         142.4784  142.2827  162.3760 C.ar    1  UNL1        0.0576
      3 C         141.9518  140.9669  161.8850 C.ar    1  UNL1        0.0702
      4 C         141.6799  140.7661  160.4236 C.ar    1  UNL1        0.0209
      5 C         141.9346  141.8812  159.4532 C.ar    1  UNL1        0.0415
      6 C         142.4612  143.1971  159.9443 C.ar    1  UNL1        0.1724
      7 N         141.6970  139.8517  162.8554 N.ar    1  UNL1       -0.2705
      8 C         142.8211  138.9518  163.2756 C.ar    1  UNL1        0.1036
      9 C         142.5664  137.8367  164.2460 C.ar    1  UNL1        0.1177
     10 N         141.1876  137.6215  164.7962 N.ar    1  UNL1       -0.2418
     11 C         140.0635  138.5214  164.3759 C.ar    1  UNL1        0.1153
     12 C         140.3183  139.6365  163.4055 C.ar    1  UNL1        0.2783
     13 O         139.1942  140.5365  162.9853 O.2     1  UNL1       -0.2653
     14 C         138.6847  138.3062  164.9261 C.3     1  UNL1        0.0511
     15 C         138.2939  138.9275  166.2342 C.3     1  UNL1        0.0111
     16 C         139.0099  140.1497  166.7277 C.3     1  UNL1        0.0268
     17 C         139.9263  140.0552  167.9115 C.ar    1  UNL1       -0.0222
     18 C         141.3969  139.8423  167.7065 C.ar    1  UNL1       -0.0043
     19 C         142.3132  139.7479  168.8902 C.ar    1  UNL1       -0.0003
     20 C         141.7590  139.8664  170.2791 C.ar    1  UNL1       -0.0000
     21 C         140.2884  140.0793  170.4841 C.ar    1  UNL1       -0.0003
     22 C         139.3721  140.1738  169.3003 C.ar    1  UNL1       -0.0043
     23 C         143.4768  144.9341  163.3645 C.3     1  UNL1        0.2526
     24 O         143.2597  144.7137  161.8968 O.3     1  UNL1       -0.4683
     25 O         142.7160  144.3122  158.9739 O.3     1  UNL1       -0.4709
     26 C         141.5744  145.1474  158.4746 C.3     1  UNL1        0.2228
     27 C         140.1687  144.8148  158.8790 C.3     1  UNL1        0.1200
     28 N         139.7919  144.7902  160.3307 N.3     1  UNL1       -0.2696
     29 C         140.0039  145.9015  161.3156 C.3     1  UNL1        0.0722
     30 C         139.4799  145.4481  162.6460 C.3     1  UNL1        0.0188
     31 C         138.9440  144.0565  162.4832 C.3     1  UNL1        0.0188
     32 C         139.1368  143.6500  161.0523 C.3     1  UNL1        0.0722
@<TRIPOS>BOND
     1    23    24    1
     2    24     1    1
     3     1     2   ar
     4     2     3   ar
     5     3     7    1
     6     7     8   ar
     7     8     9   ar
     8     9    10   ar
     9    10    11   ar
    10    11    14    1
    11    14    15    1
    12    15    16    1
    13    16    17    1
    14    17    18   ar
    15    18    19   ar
    16    19    20   ar
    17    20    21   ar
    18    21    22   ar
    19    11    12   ar
    20    12    13    2
    21     3     4   ar
    22     4     5   ar
    23     5     6   ar
    24     6    25    1
    25    25    26    1
    26    26    27    1
    27    27    28    1
    28    28    29    1
    29    29    30    1
    30    30    31    1
    31    31    32    1
    32     6     1   ar
    33    32    28    1
    34    12     7   ar
    35    22    17   ar
@<TRIPOS>MOLECULE
*****
 32 35 0 0 0
SMALL
GASTEIGER

@<TRIPOS>ATOM
      1 C         140.5480  144.3103  160.1085 C.ar    1  UNL1        0.1738
      2 C         140.1187  143.0207  160.7428 C.ar    1  UNL1        0.0576
      3 C         140.8645  141.7537  160.4451 C.ar    1  UNL1        0.0702
      4 C         142.0395  141.7764  159.5131 C.ar    1  UNL1        0.0209
      5 C         142.4688  143.0661  158.8788 C.ar    1  UNL1        0.0415
      6 C         141.7230  144.3330  159.1765 C.ar    1  UNL1        0.1724
      7 N         140.4352  140.4640  161.0795 N.ar    1  UNL1       -0.2705
      8 C         139.6168  139.4795  160.2977 C.ar    1  UNL1        0.1036
      9 C         139.1875  138.1899  160.9320 C.ar    1  UNL1        0.1177
     10 N         139.5765  137.8846  162.3482 N.ar    1  UNL1       -0.2418
     11 C         140.3948  138.8690  163.1300 C.ar    1  UNL1        0.1153
     12 C         140.8241  140.1587  162.4957 C.ar    1  UNL1        0.2783
     13 O         141.6425  141.1432  163.2775 O.2     1  UNL1       -0.2653
     14 C         140.7838  138.5638  164.5462 C.3     1  UNL1        0.0511
     15 C         139.8173  138.8267  165.6627 C.3     1  UNL1        0.0111
     16 C         139.8777  140.1215  166.4177 C.3     1  UNL1        0.0268
     17 C         139.3683  141.3828  165.7857 C.ar    1  UNL1       -0.0222
     18 C         140.0175  142.6968  166.1047 C.ar    1  UNL1       -0.0043
     19 C         139.5080  143.9581  165.4727 C.ar    1  UNL1       -0.0003
     20 C         138.3493  143.9054  164.5215 C.ar    1  UNL1       -0.0000
     21 C         137.7001  142.5914  164.2025 C.ar    1  UNL1       -0.0003
     22 C         138.2096  141.3300  164.8346 C.ar    1  UNL1       -0.0043
     23 C         139.8057  146.1406  161.7963 C.3     1  UNL1        0.2526
     24 O         139.8022  145.5773  160.4062 O.3     1  UNL1       -0.4683
     25 O         142.1523  145.6227  158.5421 O.3     1  UNL1       -0.4709
     26 C         141.8812  145.8699  157.0877 C.3     1  UNL1        0.2228
     27 C         140.4698  145.8862  156.5800 C.3     1  UNL1        0.1200
     28 N         139.9365  147.1042  155.8857 N.3     1  UNL1       -0.2696
     29 C         140.2889  147.5536  154.4986 C.3     1  UNL1        0.0722
     30 C         139.5274  148.8138  154.2121 C.3     1  UNL1        0.0188
     31 C         138.7044  149.1432  155.4222 C.3     1  UNL1        0.0188
     32 C         138.9573  148.0867  156.4565 C.3     1  UNL1        0.0722
@<TRIPOS>BOND
     1    23    24    1
     2    24     1    1
     3     1     2   ar
     4     2     3   ar
     5     3     7    1
     6     7     8   ar
     7     8     9   ar
     8     9    10   ar
     9    10    11   ar
    10    11    14    1
    11    14    15    1
    12    15    16    1
    13    16    17    1
    14    17    18   ar
    15    18    19   ar
    16    19    20   ar
    17    20    21   ar
    18    21    22   ar
    19    11    12   ar
    20    12    13    2
    21     3     4   ar
    22     4     5   ar
    23     5     6   ar
    24     6    25    1
    25    25    26    1
    26    26    27    1
    27    27    28    1
    28    28    29    1
    29    29    30    1
    30    30    31    1
    31    31    32    1
    32     6     1   ar
    33    32    28    1
    34    12     7   ar
    35    22    17   ar
@<TRIPOS>MOLECULE
*****
 32 35 0 0 0
SMALL
GASTEIGER

@<TRIPOS>ATOM
      1 C         139.6395  138.9571  160.5885 C.ar    1  UNL1        0.1738
      2 C         139.5668  140.1781  161.4568 C.ar    1  UNL1        0.0576
      3 C         139.3104  141.5218  160.8415 C.ar    1  UNL1        0.0702
      4 C         139.1267  141.6447  159.3579 C.ar    1  UNL1        0.0209
      5 C         139.1993  140.4237  158.4896 C.ar    1  UNL1        0.0415
      6 C         139.4558  139.0800  159.1049 C.ar    1  UNL1        0.1724
      7 N         139.2377  142.7428  161.7099 N.ar    1  UNL1       -0.2705
      8 C         137.9305  143.1511  162.3219 C.ar    1  UNL1        0.1036
      9 C         137.8578  144.3720  163.1903 C.ar    1  UNL1        0.1177
     10 N         139.0923  145.1846  163.4467 N.ar    1  UNL1       -0.2418
     11 C         140.3995  144.7763  162.8347 C.ar    1  UNL1        0.1153
     12 C         140.4722  143.5554  161.9663 C.ar    1  UNL1        0.2783
     13 O         141.7793  143.1471  161.3543 O.2     1  UNL1       -0.2653
     14 C         141.6339  145.5889  163.0910 C.3     1  UNL1        0.0511
     15 C         142.6000  145.1687  164.1588 C.3     1  UNL1        0.0111
     16 C         143.8999  144.5220  163.7818 C.3     1  UNL1        0.0268
     17 C         144.0994  143.0524  164.0067 C.ar    1  UNL1       -0.0222
     18 C         143.2509  142.3248  165.0069 C.ar    1  UNL1       -0.0043
     19 C         143.4504  140.8553  165.2319 C.ar    1  UNL1       -0.0003
     20 C         144.4985  140.1133  164.4566 C.ar    1  UNL1       -0.0000
     21 C         145.3471  140.8410  163.4563 C.ar    1  UNL1       -0.0003
     22 C         145.1475  142.3106  163.2314 C.ar    1  UNL1       -0.0043
     23 C         140.3482  137.5158  162.6305 C.3     1  UNL1        0.2526
     24 O         139.8959  137.6134  161.2037 O.3     1  UNL1       -0.4683
     25 O         139.5284  137.8590  158.2365 O.3     1  UNL1       -0.4709
     26 C         140.5611  137.7702  157.1522 C.3     1  UNL1        0.2228
     27 C         141.9920  137.4851  157.5007 C.3     1  UNL1        0.1200
     28 N         142.6397  138.1965  158.6516 N.3     1  UNL1       -0.2696
     29 C         143.0009  139.6516  158.6980 C.3     1  UNL1        0.0722
     30 C         143.6243  139.9321  160.0332 C.3     1  UNL1        0.0188
     31 C         143.6484  138.6502  160.8119 C.3     1  UNL1        0.0188
     32 C         143.0399  137.5776  159.9580 C.3     1  UNL1        0.0722
@<TRIPOS>BOND
     1    23    24    1
     2    24     1    1
     3     1     2   ar
     4     2     3   ar
     5     3     7    1
     6     7     8   ar
     7     8     9   ar
     8     9    10   ar
     9    10    11   ar
    10    11    14    1
    11    14    15    1
    12    15    16    1
    13    16    17    1
    14    17    18   ar
    15    18    19   ar
    16    19    20   ar
    17    20    21   ar
    18    21    22   ar
    19    11    12   ar
    20    12    13    2
    21     3     4   ar
    22     4     5   ar
    23     5     6   ar
    24     6    25    1
    25    25    26    1
    26    26    27    1
    27    27    28    1
    28    28    29    1
    29    29    30    1
    30    30    31    1
    31    31    32    1
    32     6     1   ar
    33    32    28    1
    34    12     7   ar
    35    22    17   ar
@<TRIPOS>MOLECULE
*****
 32 35 0 0 0
SMALL
GASTEIGER

@<TRIPOS>ATOM
      1 C         141.0219  141.7459  160.8586 C.ar    1  UNL1        0.1738
      2 C         140.8195  140.8672  162.0573 C.ar    1  UNL1        0.0576
      3 C         139.4426  140.6701  162.6188 C.ar    1  UNL1        0.0702
      4 C         138.2681  141.3518  161.9817 C.ar    1  UNL1        0.0209
      5 C         138.4706  142.2305  160.7831 C.ar    1  UNL1        0.0415
      6 C         139.8475  142.4276  160.2215 C.ar    1  UNL1        0.1724
      7 N         139.2401  139.7913  163.8175 N.ar    1  UNL1       -0.2705
      8 C         138.9290  138.3352  163.6360 C.ar    1  UNL1        0.1036
      9 C         138.7266  137.4565  164.8346 C.ar    1  UNL1        0.1177
     10 N         138.8353  138.0338  166.2149 N.ar    1  UNL1       -0.2418
     11 C         139.1464  139.4899  166.3964 C.ar    1  UNL1        0.1153
     12 C         139.3489  140.3687  165.1977 C.ar    1  UNL1        0.2783
     13 O         139.6600  141.8248  165.3792 O.2     1  UNL1       -0.2653
     14 C         139.2552  140.0672  167.7765 C.3     1  UNL1        0.0511
     15 C         140.5876  140.5163  168.2988 C.3     1  UNL1        0.0111
     16 C         141.8477  139.8970  167.7706 C.3     1  UNL1        0.0268
     17 C         142.6578  140.6145  166.7319 C.ar    1  UNL1       -0.0222
     18 C         142.9740  142.0709  166.9015 C.ar    1  UNL1       -0.0043
     19 C         143.7841  142.7884  165.8629 C.ar    1  UNL1       -0.0003
     20 C         144.2780  142.0495  164.6544 C.ar    1  UNL1       -0.0000
     21 C         143.9617  140.5931  164.4848 C.ar    1  UNL1       -0.0003
     22 C         143.1516  139.8756  165.5236 C.ar    1  UNL1       -0.0043
     23 C         143.3149  140.7674  160.1273 C.3     1  UNL1        0.2526
     24 O         142.3988  141.9429  160.2971 O.3     1  UNL1       -0.4683
     25 O         140.0499  143.3064  159.0228 O.3     1  UNL1       -0.4709
     26 C         140.1208  144.7955  159.1880 C.3     1  UNL1        0.2228
     27 C         141.0611  145.3950  160.1913 C.3     1  UNL1        0.1200
     28 N         140.8181  145.1977  161.6582 N.3     1  UNL1       -0.2696
     29 C         139.5077  145.3746  162.3665 C.3     1  UNL1        0.0722
     30 C         139.7225  145.0751  163.8205 C.3     1  UNL1        0.0188
     31 C         141.1658  144.7132  164.0108 C.3     1  UNL1        0.0188
     32 C         141.8428  144.7889  162.6745 C.3     1  UNL1        0.0722
@<TRIPOS>BOND
     1    23    24    1
     2    24     1    1
     3     1     2   ar
     4     2     3   ar
     5     3     7    1
     6     7     8   ar
     7     8     9   ar
     8     9    10   ar
     9    10    11   ar
    10    11    14    1
    11    14    15    1
    12    15    16    1
    13    16    17    1
    14    17    18   ar
    15    18    19   ar
    16    19    20   ar
    17    20    21   ar
    18    21    22   ar
    19    11    12   ar
    20    12    13    2
    21     3     4   ar
    22     4     5   ar
    23     5     6   ar
    24     6    25    1
    25    25    26    1
    26    26    27    1
    27    27    28    1
    28    28    29    1
    29    29    30    1
    30    30    31    1
    31    31    32    1
    32     6     1   ar
    33    32    28    1
    34    12     7   ar
    35    22    17   ar
@<TRIPOS>MOLECULE
*****
 32 35 0 0 0
SMALL
GASTEIGER

@<TRIPOS>ATOM
      1 C         140.2146  137.4982  157.0132 C.ar    1  UNL1        0.1738
      2 C         140.0945  138.3199  158.2624 C.ar    1  UNL1        0.0576
      3 C         141.3153  138.6285  159.0774 C.ar    1  UNL1        0.0702
      4 C         142.6563  138.1153  158.6433 C.ar    1  UNL1        0.0209
      5 C         142.7764  137.2937  157.3942 C.ar    1  UNL1        0.0415
      6 C         141.5555  136.9851  156.5792 C.ar    1  UNL1        0.1724
      7 N         141.1952  139.4502  160.3266 N.ar    1  UNL1       -0.2705
      8 C         141.1974  140.9478  160.2422 C.ar    1  UNL1        0.1036
      9 C         141.0773  141.7695  161.4913 C.ar    1  UNL1        0.1177
     10 N         140.9548  141.0937  162.8249 N.ar    1  UNL1       -0.2418
     11 C         140.9526  139.5960  162.9092 C.ar    1  UNL1        0.1153
     12 C         141.0727  138.7743  161.6600 C.ar    1  UNL1        0.2783
     13 O         141.0705  137.2767  161.7444 O.2     1  UNL1       -0.2653
     14 C         140.8302  138.9201  164.2427 C.3     1  UNL1        0.0511
     15 C         141.9914  138.1553  164.8052 C.3     1  UNL1        0.0111
     16 C         142.9737  138.8403  165.7086 C.3     1  UNL1        0.0268
     17 C         143.6798  140.0802  165.2461 C.ar    1  UNL1       -0.0222
     18 C         143.2137  141.4272  165.7134 C.ar    1  UNL1       -0.0043
     19 C         143.9198  142.6671  165.2508 C.ar    1  UNL1       -0.0003
     20 C         145.0920  142.5601  164.3210 C.ar    1  UNL1       -0.0000
     21 C         145.5581  141.2131  163.8537 C.ar    1  UNL1       -0.0003
     22 C         144.8519  139.9731  164.3163 C.ar    1  UNL1       -0.0043
     23 C         138.7216  137.9535  154.9363 C.3     1  UNL1        0.2526
     24 O         138.9937  137.1896  156.1982 O.3     1  UNL1       -0.4683
     25 O         141.6757  136.1633  155.3300 O.3     1  UNL1       -0.4709
     26 C         141.3514  134.6992  155.3613 C.3     1  UNL1        0.2228
     27 C         142.3736  133.6949  154.9176 C.3     1  UNL1        0.1200
     28 N         143.3806  133.1673  155.8960 N.3     1  UNL1       -0.2696
     29 C         143.6327  133.6999  157.2754 C.3     1  UNL1        0.0722
     30 C         144.7203  132.8762  157.8988 C.3     1  UNL1        0.0188
     31 C         145.1403  131.8344  156.9046 C.3     1  UNL1        0.0188
     32 C         144.3124  132.0143  155.6669 C.3     1  UNL1        0.0722
@<TRIPOS>BOND
     1    23    24    1
     2    24     1    1
     3     1     2   ar
     4     2     3   ar
     5     3     7    1
     6     7     8   ar
     7     8     9   ar
     8     9    10   ar
     9    10    11   ar
    10    11    14    1
    11    14    15    1
    12    15    16    1
    13    16    17    1
    14    17    18   ar
    15    18    19   ar
    16    19    20   ar
    17    20    21   ar
    18    21    22   ar
    19    11    12   ar
    20    12    13    2
    21     3     4   ar
    22     4     5   ar
    23     5     6   ar
    24     6    25    1
    25    25    26    1
    26    26    27    1
    27    27    28    1
    28    28    29    1
    29    29    30    1
    30    30    31    1
    31    31    32    1
    32     6     1   ar
    33    32    28    1
    34    12     7   ar
    35    22    17   ar
