@<TRIPOS>MOLECULE
*****
 41 45 0 0 0
SMALL
GASTEIGER

@<TRIPOS>ATOM
      1 C         140.1088  145.6073  161.4765 C.3     1  UNL1        0.1700
      2 O         139.1074  146.7004  161.2474 O.3     1  UNL1       -0.3793
      3 H         138.6445  146.5444  160.4093 H       1  UNL1        0.2106
      4 C         140.2585  144.5045  160.4708 C.3     1  UNL1        0.2358
      5 O         139.1083  143.5832  160.1911 O.3     1  UNL1       -0.4727
      6 C         139.2878  141.1545  161.0962 C.ar    1  UNL1        0.0686
      7 C         138.9010  140.1111  162.1020 C.ar    1  UNL1        0.0059
      8 C         137.9479  140.4530  163.2086 C.ar    1  UNL1        0.0003
      9 C         137.3816  141.8383  163.3095 C.ar    1  UNL1        0.0031
     10 C         137.7684  142.8817  162.3037 C.ar    1  UNL1        0.0370
     11 C         138.7215  142.5398  161.1970 C.ar    1  UNL1        0.1413
     12 O         139.7146  140.4283  158.6384 O.2     1  UNL1       -0.2912
     13 C         140.2408  140.8126  159.9895 C.2     1  UNL1        0.1763
     14 C         141.7202  140.8549  160.2339 C.3     1  UNL1        0.0739
     15 C         142.3861  139.7491  160.9980 C.3     1  UNL1        0.0345
     16 C         143.4271  140.0709  162.0290 C.ar    1  UNL1       -0.0217
     17 C         144.3014  141.2780  161.8606 C.ar    1  UNL1       -0.0043
     18 C         145.3423  141.5998  162.8916 C.ar    1  UNL1       -0.0003
     19 C         145.5088  140.7144  164.0910 C.ar    1  UNL1       -0.0000
     20 C         144.6345  139.5073  164.2593 C.ar    1  UNL1       -0.0003
     21 C         143.5936  139.1856  163.2284 C.ar    1  UNL1       -0.0043
     22 C         140.9604  145.6170  162.7112 C.3     1  UNL1        0.1056
     23 N         140.8620  144.4924  163.6990 N.3     1  UNL1       -0.2682
     24 C         139.8211  144.5311  164.7783 C.3     1  UNL1        0.0897
     25 C         139.7228  143.4066  165.7661 C.3     1  UNL1        0.0901
     26 N         140.6653  142.2433  165.6746 N.3     1  UNL1       -0.2644
     27 C         141.7062  142.2046  164.5952 C.3     1  UNL1        0.0901
     28 C         141.8046  143.3292  163.6075 C.3     1  UNL1        0.0897
     29 C         140.5670  141.1188  166.6623 C.3     1  UNL1        0.1031
     30 C         141.1126  141.2888  168.0492 C.ar    1  UNL1       -0.0036
     31 C         142.5796  141.1090  168.3052 C.ar    1  UNL1       -0.0026
     32 C         143.1253  141.2790  169.6921 C.ar    1  UNL1       -0.0003
     33 C         142.2039  141.6289  170.8229 C.ar    1  UNL1       -0.0000
     34 C         140.7369  141.8087  170.5669 C.ar    1  UNL1       -0.0003
     35 C         140.1912  141.6386  169.1800 C.ar    1  UNL1       -0.0026
     36 C         139.9230  139.8242  166.2633 C.ar    1  UNL1       -0.0036
     37 C         138.5921  139.4398  166.8387 C.ar    1  UNL1       -0.0026
     38 C         137.9481  138.1452  166.4396 C.ar    1  UNL1       -0.0003
     39 C         138.6350  137.2349  165.4652 C.ar    1  UNL1       -0.0000
     40 C         139.9659  137.6193  164.8898 C.ar    1  UNL1       -0.0003
     41 C         140.6099  138.9139  165.2888 C.ar    1  UNL1       -0.0026
@<TRIPOS>BOND
     1    12    13    2
     2    13    14    1
     3    14    15    1
     4    15    16    1
     5    16    17   ar
     6    17    18   ar
     7    18    19   ar
     8    19    20   ar
     9    20    21   ar
    10    13     6    1
    11     6     7   ar
    12     7     8   ar
    13     8     9   ar
    14     9    10   ar
    15    10    11   ar
    16    11     5    1
    17     5     4    1
    18     4     1    1
    19     1     2    1
    20     1    22    1
    21    22    23    1
    22    23    24    1
    23    24    25    1
    24    25    26    1
    25    26    29    1
    26    29    30    1
    27    30    31   ar
    28    31    32   ar
    29    32    33   ar
    30    33    34   ar
    31    34    35   ar
    32    29    36    1
    33    36    37   ar
    34    37    38   ar
    35    38    39   ar
    36    39    40   ar
    37    40    41   ar
    38    26    27    1
    39    27    28    1
    40    21    16   ar
    41    11     6   ar
    42    28    23    1
    43    35    30   ar
    44    41    36   ar
    45     2     3    1
@<TRIPOS>MOLECULE
*****
 41 45 0 0 0
SMALL
GASTEIGER

@<TRIPOS>ATOM
      1 C         140.6828  145.1464  160.1446 C.3     1  UNL1        0.1700
      2 O         141.8304  145.6048  159.2944 O.3     1  UNL1       -0.3793
      3 H         141.7612  145.2034  158.4141 H       1  UNL1        0.2106
      4 C         139.6592  144.2067  159.5796 C.3     1  UNL1        0.2358
      5 O         139.8928  142.7258  159.6282 O.3     1  UNL1       -0.4727
      6 C         139.5950  140.4509  160.8472 C.ar    1  UNL1        0.0686
      7 C         138.9278  139.6207  161.9035 C.ar    1  UNL1        0.0059
      8 C         137.8914  140.2351  162.7968 C.ar    1  UNL1        0.0003
      9 C         137.5220  141.6798  162.6340 C.ar    1  UNL1        0.0031
     10 C         138.1891  142.5100  161.5778 C.ar    1  UNL1        0.0370
     11 C         139.2257  141.8955  160.6844 C.ar    1  UNL1        0.1413
     12 O         140.2138  138.9362  158.8292 O.2     1  UNL1       -0.2912
     13 C         140.6315  139.8365  159.9539 C.2     1  UNL1        0.1763
     14 C         142.0858  140.1224  160.1852 C.3     1  UNL1        0.0739
     15 C         142.8717  139.2813  161.1468 C.3     1  UNL1        0.0345
     16 C         143.8145  139.9320  162.1153 C.ar    1  UNL1       -0.0217
     17 C         144.4493  141.2477  161.7750 C.ar    1  UNL1       -0.0043
     18 C         145.3920  141.8984  162.7434 C.ar    1  UNL1       -0.0003
     19 C         145.7000  141.2332  164.0521 C.ar    1  UNL1       -0.0000
     20 C         145.0653  139.9174  164.3924 C.ar    1  UNL1       -0.0003
     21 C         144.1226  139.2668  163.4240 C.ar    1  UNL1       -0.0043
     22 C         140.5587  145.6276  161.5599 C.3     1  UNL1        0.1056
     23 N         140.5839  144.6435  162.6917 N.3     1  UNL1       -0.2682
     24 C         139.5993  144.7686  163.8163 C.3     1  UNL1        0.0897
     25 C         139.6244  143.7845  164.9480 C.3     1  UNL1        0.0901
     26 N         140.6342  142.6753  164.9552 N.3     1  UNL1       -0.2644
     27 C         141.6188  142.5502  163.8305 C.3     1  UNL1        0.0901
     28 C         141.5936  143.5344  162.6988 C.3     1  UNL1        0.0897
     29 C         140.6593  141.6912  166.0869 C.3     1  UNL1        0.1031
     30 C         140.0682  140.3245  165.9058 C.ar    1  UNL1       -0.0036
     31 C         138.7447  139.9913  166.5281 C.ar    1  UNL1       -0.0026
     32 C         138.1536  138.6246  166.3470 C.ar    1  UNL1       -0.0003
     33 C         138.8860  137.5912  165.5434 C.ar    1  UNL1       -0.0000
     34 C         140.2094  137.9244  164.9210 C.ar    1  UNL1       -0.0003
     35 C         140.8006  139.2911  165.1022 C.ar    1  UNL1       -0.0026
     36 C         141.2756  142.0737  167.3999 C.ar    1  UNL1       -0.0036
     37 C         140.4586  142.7963  168.4297 C.ar    1  UNL1       -0.0026
     38 C         141.0749  143.1788  169.7427 C.ar    1  UNL1       -0.0003
     39 C         142.5081  142.8387  170.0259 C.ar    1  UNL1       -0.0000
     40 C         143.3251  142.1162  168.9961 C.ar    1  UNL1       -0.0003
     41 C         142.7088  141.7337  167.6831 C.ar    1  UNL1       -0.0026
@<TRIPOS>BOND
     1    12    13    2
     2    13    14    1
     3    14    15    1
     4    15    16    1
     5    16    17   ar
     6    17    18   ar
     7    18    19   ar
     8    19    20   ar
     9    20    21   ar
    10    13     6    1
    11     6     7   ar
    12     7     8   ar
    13     8     9   ar
    14     9    10   ar
    15    10    11   ar
    16    11     5    1
    17     5     4    1
    18     4     1    1
    19     1     2    1
    20     1    22    1
    21    22    23    1
    22    23    24    1
    23    24    25    1
    24    25    26    1
    25    26    29    1
    26    29    30    1
    27    30    31   ar
    28    31    32   ar
    29    32    33   ar
    30    33    34   ar
    31    34    35   ar
    32    29    36    1
    33    36    37   ar
    34    37    38   ar
    35    38    39   ar
    36    39    40   ar
    37    40    41   ar
    38    26    27    1
    39    27    28    1
    40    21    16   ar
    41    11     6   ar
    42    28    23    1
    43    35    30   ar
    44    41    36   ar
    45     2     3    1
@<TRIPOS>MOLECULE
*****
 41 45 0 0 0
SMALL
GASTEIGER

@<TRIPOS>ATOM
      1 C         140.8741  145.1297  160.3467 C.3     1  UNL1        0.1700
      2 O         141.8515  145.8063  159.4317 O.3     1  UNL1       -0.3793
      3 H         141.9032  145.3175  158.5955 H       1  UNL1        0.2106
      4 C         140.1598  143.8899  159.8965 C.3     1  UNL1        0.2358
      5 O         140.6785  142.5396  160.2935 O.3     1  UNL1       -0.4727
      6 C         140.0259  140.0273  160.4068 C.ar    1  UNL1        0.0686
      7 C         139.0701  138.9513  160.8291 C.ar    1  UNL1        0.0059
      8 C         137.8109  139.3113  161.5604 C.ar    1  UNL1        0.0003
      9 C         137.5075  140.7475  161.8694 C.ar    1  UNL1        0.0031
     10 C         138.4634  141.8236  161.4471 C.ar    1  UNL1        0.0370
     11 C         139.7226  141.4635  160.7158 C.ar    1  UNL1        0.1413
     12 O         141.4670  140.0830  158.2458 O.2     1  UNL1       -0.2912
     13 C         141.2851  139.6673  159.6755 C.2     1  UNL1        0.1763
     14 C         142.3624  138.8916  160.3739 C.3     1  UNL1        0.0739
     15 C         143.1623  139.5362  161.4668 C.3     1  UNL1        0.0345
     16 C         142.9328  139.1429  162.8961 C.ar    1  UNL1       -0.0217
     17 C         142.0168  138.0007  163.2219 C.ar    1  UNL1       -0.0043
     18 C         141.7873  137.6075  164.6511 C.ar    1  UNL1       -0.0003
     19 C         142.4739  138.3565  165.7545 C.ar    1  UNL1       -0.0000
     20 C         143.3900  139.4987  165.4288 C.ar    1  UNL1       -0.0003
     21 C         143.6195  139.8919  163.9995 C.ar    1  UNL1       -0.0043
     22 C         140.6112  145.6930  161.7118 C.3     1  UNL1        0.1056
     23 N         140.5534  144.7808  162.9011 N.3     1  UNL1       -0.2682
     24 C         141.7166  143.8890  163.2196 C.3     1  UNL1        0.0897
     25 C         141.6588  142.9768  164.4089 C.3     1  UNL1        0.0901
     26 N         140.4377  142.9564  165.2798 N.3     1  UNL1       -0.2644
     27 C         139.2745  143.8482  164.9614 C.3     1  UNL1        0.0901
     28 C         139.3323  144.7604  163.7720 C.3     1  UNL1        0.0897
     29 C         140.3799  142.0442  166.4692 C.3     1  UNL1        0.1031
     30 C         139.5906  140.7706  166.3999 C.ar    1  UNL1       -0.0036
     31 C         139.2434  140.1749  165.0677 C.ar    1  UNL1       -0.0026
     32 C         138.4541  138.9013  164.9984 C.ar    1  UNL1       -0.0003
     33 C         138.0120  138.2232  166.2612 C.ar    1  UNL1       -0.0000
     34 C         138.3592  138.8188  167.5934 C.ar    1  UNL1       -0.0003
     35 C         139.1486  140.0925  167.6627 C.ar    1  UNL1       -0.0026
     36 C         141.1114  142.4056  167.7278 C.ar    1  UNL1       -0.0036
     37 C         142.5107  141.9130  167.9499 C.ar    1  UNL1       -0.0026
     38 C         143.2422  142.2745  169.2087 C.ar    1  UNL1       -0.0003
     39 C         142.5744  143.1285  170.2452 C.ar    1  UNL1       -0.0000
     40 C         141.1751  143.6212  170.0232 C.ar    1  UNL1       -0.0003
     41 C         140.4436  143.2597  168.7645 C.ar    1  UNL1       -0.0026
@<TRIPOS>BOND
     1    12    13    2
     2    13    14    1
     3    14    15    1
     4    15    16    1
     5    16    17   ar
     6    17    18   ar
     7    18    19   ar
     8    19    20   ar
     9    20    21   ar
    10    13     6    1
    11     6     7   ar
    12     7     8   ar
    13     8     9   ar
    14     9    10   ar
    15    10    11   ar
    16    11     5    1
    17     5     4    1
    18     4     1    1
    19     1     2    1
    20     1    22    1
    21    22    23    1
    22    23    24    1
    23    24    25    1
    24    25    26    1
    25    26    29    1
    26    29    30    1
    27    30    31   ar
    28    31    32   ar
    29    32    33   ar
    30    33    34   ar
    31    34    35   ar
    32    29    36    1
    33    36    37   ar
    34    37    38   ar
    35    38    39   ar
    36    39    40   ar
    37    40    41   ar
    38    26    27    1
    39    27    28    1
    40    21    16   ar
    41    11     6   ar
    42    28    23    1
    43    35    30   ar
    44    41    36   ar
    45     2     3    1
@<TRIPOS>MOLECULE
*****
 41 45 0 0 0
SMALL
GASTEIGER

@<TRIPOS>ATOM
      1 C         140.2532  145.8380  161.4288 C.3     1  UNL1        0.1700
      2 O         138.9800  146.5945  161.1905 O.3     1  UNL1       -0.3793
      3 H         138.6864  146.4538  160.2768 H       1  UNL1        0.2106
      4 C         140.8625  145.0281  160.3230 C.3     1  UNL1        0.2358
      5 O         142.2622  144.5060  160.4593 O.3     1  UNL1       -0.4727
      6 C         143.5225  142.3151  159.8582 C.ar    1  UNL1        0.0686
      7 C         144.0762  141.3758  158.8281 C.ar    1  UNL1        0.0059
      8 C         143.9232  141.6880  157.3690 C.ar    1  UNL1        0.0003
      9 C         143.2165  142.9397  156.9399 C.ar    1  UNL1        0.0031
     10 C         142.6628  143.8790  157.9700 C.ar    1  UNL1        0.0370
     11 C         142.8159  143.5667  159.4292 C.ar    1  UNL1        0.1413
     12 O         144.8518  142.5372  162.0794 O.2     1  UNL1       -0.2912
     13 C         143.6755  142.0028  161.3173 C.2     1  UNL1        0.1763
     14 C         142.6522  141.1561  162.0145 C.3     1  UNL1        0.0739
     15 C         141.1967  141.5052  161.9158 C.3     1  UNL1        0.0345
     16 C         140.1634  140.4179  161.9088 C.ar    1  UNL1       -0.0217
     17 C         140.4682  139.0976  161.2655 C.ar    1  UNL1       -0.0043
     18 C         139.4349  138.0103  161.2586 C.ar    1  UNL1       -0.0003
     19 C         138.0968  138.2433  161.8950 C.ar    1  UNL1       -0.0000
     20 C         137.7919  139.5636  162.5383 C.ar    1  UNL1       -0.0003
     21 C         138.8252  140.6509  162.5453 C.ar    1  UNL1       -0.0043
     22 C         140.9169  145.8913  162.7729 C.3     1  UNL1        0.1056
     23 N         140.7494  144.7551  163.7377 N.3     1  UNL1       -0.2682
     24 C         141.9561  144.0563  164.2903 C.3     1  UNL1        0.0897
     25 C         141.7885  142.9201  165.2552 C.3     1  UNL1        0.0901
     26 N         140.4142  142.4828  165.6675 N.3     1  UNL1       -0.2644
     27 C         139.2075  143.1816  165.1149 C.3     1  UNL1        0.0901
     28 C         139.3751  144.3178  164.1500 C.3     1  UNL1        0.0897
     29 C         140.2466  141.3466  166.6324 C.3     1  UNL1        0.1031
     30 C         139.9134  139.9748  166.1252 C.ar    1  UNL1       -0.0036
     31 C         138.5623  139.3825  166.3968 C.ar    1  UNL1       -0.0026
     32 C         138.2291  138.0107  165.8896 C.ar    1  UNL1       -0.0003
     33 C         139.2469  137.2313  165.1108 C.ar    1  UNL1       -0.0000
     34 C         140.5979  137.8236  164.8391 C.ar    1  UNL1       -0.0003
     35 C         140.9312  139.1954  165.3463 C.ar    1  UNL1       -0.0026
     36 C         140.4123  141.5821  168.1044 C.ar    1  UNL1       -0.0036
     37 C         140.3724  142.9789  168.6497 C.ar    1  UNL1       -0.0026
     38 C         140.5381  143.2144  170.1218 C.ar    1  UNL1       -0.0003
     39 C         140.7436  142.0531  171.0487 C.ar    1  UNL1       -0.0000
     40 C         140.7835  140.6563  170.5034 C.ar    1  UNL1       -0.0003
     41 C         140.6179  140.4208  169.0314 C.ar    1  UNL1       -0.0026
@<TRIPOS>BOND
     1    12    13    2
     2    13    14    1
     3    14    15    1
     4    15    16    1
     5    16    17   ar
     6    17    18   ar
     7    18    19   ar
     8    19    20   ar
     9    20    21   ar
    10    13     6    1
    11     6     7   ar
    12     7     8   ar
    13     8     9   ar
    14     9    10   ar
    15    10    11   ar
    16    11     5    1
    17     5     4    1
    18     4     1    1
    19     1     2    1
    20     1    22    1
    21    22    23    1
    22    23    24    1
    23    24    25    1
    24    25    26    1
    25    26    29    1
    26    29    30    1
    27    30    31   ar
    28    31    32   ar
    29    32    33   ar
    30    33    34   ar
    31    34    35   ar
    32    29    36    1
    33    36    37   ar
    34    37    38   ar
    35    38    39   ar
    36    39    40   ar
    37    40    41   ar
    38    26    27    1
    39    27    28    1
    40    21    16   ar
    41    11     6   ar
    42    28    23    1
    43    35    30   ar
    44    41    36   ar
    45     2     3    1
@<TRIPOS>MOLECULE
*****
 41 45 0 0 0
SMALL
GASTEIGER

@<TRIPOS>ATOM
      1 C         139.1067  142.6375  158.2532 C.3     1  UNL1        0.1700
      2 O         138.4377  143.3651  157.1248 O.3     1  UNL1       -0.3793
      3 H         138.9901  144.1137  156.8501 H       1  UNL1        0.2106
      4 C         140.4307  143.1142  158.7726 C.3     1  UNL1        0.2358
      5 O         140.5293  143.6987  160.1506 O.3     1  UNL1       -0.4727
      6 C         142.0017  144.4763  162.1449 C.ar    1  UNL1        0.0686
      7 C         143.3151  144.4714  162.8694 C.ar    1  UNL1        0.0059
      8 C         144.4694  143.6839  162.3242 C.ar    1  UNL1        0.0003
      9 C         144.3105  142.9014  161.0544 C.ar    1  UNL1        0.0031
     10 C         142.9971  142.9063  160.3299 C.ar    1  UNL1        0.0370
     11 C         141.8427  143.6938  160.8751 C.ar    1  UNL1        0.1413
     12 O         140.2548  146.3817  161.8843 O.2     1  UNL1       -0.2912
     13 C         140.8473  145.2638  162.6901 C.2     1  UNL1        0.1763
     14 C         140.2854  144.9334  164.0411 C.3     1  UNL1        0.0739
     15 C         140.1762  143.5029  164.4786 C.3     1  UNL1        0.0345
     16 C         140.9122  143.0333  165.6984 C.ar    1  UNL1       -0.0217
     17 C         140.2077  142.9689  167.0210 C.ar    1  UNL1       -0.0043
     18 C         140.9437  142.4994  168.2408 C.ar    1  UNL1       -0.0003
     19 C         142.3842  142.0942  168.1379 C.ar    1  UNL1       -0.0000
     20 C         143.0888  142.1585  166.8152 C.ar    1  UNL1       -0.0003
     21 C         142.3528  142.6281  165.5955 C.ar    1  UNL1       -0.0043
     22 C         138.4517  141.4332  158.8620 C.3     1  UNL1        0.1056
     23 N         138.9379  140.8992  160.1767 N.3     1  UNL1       -0.2682
     24 C         139.9600  139.8018  160.2086 C.3     1  UNL1        0.0897
     25 C         140.4462  139.2678  161.5233 C.3     1  UNL1        0.0901
     26 N         139.9104  139.8312  162.8060 N.3     1  UNL1       -0.2644
     27 C         138.8884  140.9286  162.7741 C.3     1  UNL1        0.0901
     28 C         138.4022  141.4626  161.4594 C.3     1  UNL1        0.0897
     29 C         140.3966  139.2972  164.1207 C.3     1  UNL1        0.1031
     30 C         139.4130  138.8026  165.1394 C.ar    1  UNL1       -0.0036
     31 C         138.8679  137.4085  165.0406 C.ar    1  UNL1       -0.0026
     32 C         137.8842  136.9139  166.0592 C.ar    1  UNL1       -0.0003
     33 C         137.4455  137.8133  167.1766 C.ar    1  UNL1       -0.0000
     34 C         137.9905  139.2072  167.2755 C.ar    1  UNL1       -0.0003
     35 C         138.9743  139.7019  166.2568 C.ar    1  UNL1       -0.0026
     36 C         141.8666  139.2578  164.4168 C.ar    1  UNL1       -0.0036
     37 C         142.8358  139.9361  163.4946 C.ar    1  UNL1       -0.0026
     38 C         144.3059  139.8966  163.7907 C.ar    1  UNL1       -0.0003
     39 C         144.8065  139.1790  165.0090 C.ar    1  UNL1       -0.0000
     40 C         143.8373  138.5007  165.9312 C.ar    1  UNL1       -0.0003
     41 C         142.3673  138.5401  165.6351 C.ar    1  UNL1       -0.0026
@<TRIPOS>BOND
     1    12    13    2
     2    13    14    1
     3    14    15    1
     4    15    16    1
     5    16    17   ar
     6    17    18   ar
     7    18    19   ar
     8    19    20   ar
     9    20    21   ar
    10    13     6    1
    11     6     7   ar
    12     7     8   ar
    13     8     9   ar
    14     9    10   ar
    15    10    11   ar
    16    11     5    1
    17     5     4    1
    18     4     1    1
    19     1     2    1
    20     1    22    1
    21    22    23    1
    22    23    24    1
    23    24    25    1
    24    25    26    1
    25    26    29    1
    26    29    30    1
    27    30    31   ar
    28    31    32   ar
    29    32    33   ar
    30    33    34   ar
    31    34    35   ar
    32    29    36    1
    33    36    37   ar
    34    37    38   ar
    35    38    39   ar
    36    39    40   ar
    37    40    41   ar
    38    26    27    1
    39    27    28    1
    40    21    16   ar
    41    11     6   ar
    42    28    23    1
    43    35    30   ar
    44    41    36   ar
    45     2     3    1
@<TRIPOS>MOLECULE
*****
 41 45 0 0 0
SMALL
GASTEIGER

@<TRIPOS>ATOM
      1 C         137.2239  139.5362  160.4243 C.3     1  UNL1        0.1700
      2 O         135.7756  139.3811  160.0660 O.3     1  UNL1       -0.3793
      3 H         135.5820  139.9005  159.2700 H       1  UNL1        0.2106
      4 C         138.1165  140.3991  159.5825 C.3     1  UNL1        0.2358
      5 O         139.5955  140.4169  159.8325 O.3     1  UNL1       -0.4727
      6 C         141.6796  141.9198  159.4486 C.ar    1  UNL1        0.0686
      7 C         142.3923  143.2259  159.6394 C.ar    1  UNL1        0.0059
      8 C         141.7336  144.3349  160.4048 C.ar    1  UNL1        0.0003
      9 C         140.3620  144.1380  160.9795 C.ar    1  UNL1        0.0031
     10 C         139.6493  142.8320  160.7887 C.ar    1  UNL1        0.0370
     11 C         140.3082  141.7229  160.0233 C.ar    1  UNL1        0.1413
     12 O         142.1829  140.7322  157.1934 O.2     1  UNL1       -0.2912
     13 C         142.3384  140.8108  158.6832 C.2     1  UNL1        0.1763
     14 C         143.1527  139.7801  159.4076 C.3     1  UNL1        0.0739
     15 C         142.8823  139.4919  160.8546 C.3     1  UNL1        0.0345
     16 C         143.8335  139.9796  161.9070 C.ar    1  UNL1       -0.0217
     17 C         144.0947  139.1459  163.1263 C.ar    1  UNL1       -0.0043
     18 C         145.0458  139.6336  164.1786 C.ar    1  UNL1       -0.0003
     19 C         145.7358  140.9550  164.0116 C.ar    1  UNL1       -0.0000
     20 C         145.4746  141.7887  162.7924 C.ar    1  UNL1       -0.0003
     21 C         144.5234  141.3010  161.7401 C.ar    1  UNL1       -0.0043
     22 C         137.7796  138.8284  161.6243 C.3     1  UNL1        0.1056
     23 N         138.5262  139.6005  162.6715 N.3     1  UNL1       -0.2682
     24 C         137.8867  140.7896  163.3250 C.3     1  UNL1        0.0897
     25 C         138.6333  141.5617  164.3721 C.3     1  UNL1        0.0901
     26 N         140.0193  141.1447  164.7657 N.3     1  UNL1       -0.2644
     27 C         140.6588  139.9556  164.1122 C.3     1  UNL1        0.0901
     28 C         139.9122  139.1835  163.0651 C.3     1  UNL1        0.0897
     29 C         140.7659  141.9168  165.8128 C.3     1  UNL1        0.1031
     30 C         141.8865  142.8308  165.4143 C.ar    1  UNL1       -0.0036
     31 C         141.6536  143.8998  164.3881 C.ar    1  UNL1       -0.0026
     32 C         142.7742  144.8138  163.9896 C.ar    1  UNL1       -0.0003
     33 C         144.1277  144.6589  164.6172 C.ar    1  UNL1       -0.0000
     34 C         144.3606  143.5900  165.6434 C.ar    1  UNL1       -0.0003
     35 C         143.2400  142.6759  166.0420 C.ar    1  UNL1       -0.0026
     36 C         140.3919  141.7750  167.2585 C.ar    1  UNL1       -0.0036
     37 C         139.8745  140.4649  167.7743 C.ar    1  UNL1       -0.0026
     38 C         139.5005  140.3230  169.2200 C.ar    1  UNL1       -0.0003
     39 C         139.6439  141.4912  170.1499 C.ar    1  UNL1       -0.0000
     40 C         140.1612  142.8013  169.6341 C.ar    1  UNL1       -0.0003
     41 C         140.5352  142.9432  168.1885 C.ar    1  UNL1       -0.0026
@<TRIPOS>BOND
     1    12    13    2
     2    13    14    1
     3    14    15    1
     4    15    16    1
     5    16    17   ar
     6    17    18   ar
     7    18    19   ar
     8    19    20   ar
     9    20    21   ar
    10    13     6    1
    11     6     7   ar
    12     7     8   ar
    13     8     9   ar
    14     9    10   ar
    15    10    11   ar
    16    11     5    1
    17     5     4    1
    18     4     1    1
    19     1     2    1
    20     1    22    1
    21    22    23    1
    22    23    24    1
    23    24    25    1
    24    25    26    1
    25    26    29    1
    26    29    30    1
    27    30    31   ar
    28    31    32   ar
    29    32    33   ar
    30    33    34   ar
    31    34    35   ar
    32    29    36    1
    33    36    37   ar
    34    37    38   ar
    35    38    39   ar
    36    39    40   ar
    37    40    41   ar
    38    26    27    1
    39    27    28    1
    40    21    16   ar
    41    11     6   ar
    42    28    23    1
    43    35    30   ar
    44    41    36   ar
    45     2     3    1
@<TRIPOS>MOLECULE
*****
 41 45 0 0 0
SMALL
GASTEIGER

@<TRIPOS>ATOM
      1 C         138.1356  141.7451  157.4616 C.3     1  UNL1        0.1700
      2 O         136.9704  142.6016  157.0632 O.3     1  UNL1       -0.3793
      3 H         137.2937  143.4008  156.6186 H       1  UNL1        0.2106
      4 C         139.5342  142.1898  157.1512 C.3     1  UNL1        0.2358
      5 O         140.2965  143.0155  158.1448 O.3     1  UNL1       -0.4727
      6 C         142.3423  143.2779  159.7247 C.ar    1  UNL1        0.0686
      7 C         143.7205  142.8614  160.1455 C.ar    1  UNL1        0.0059
      8 C         144.4312  141.7661  159.4072 C.ar    1  UNL1        0.0003
      9 C         143.7637  141.0872  158.2481 C.ar    1  UNL1        0.0031
     10 C         142.3855  141.5036  157.8273 C.ar    1  UNL1        0.0370
     11 C         141.6748  142.5990  158.5656 C.ar    1  UNL1        0.1413
     12 O         141.5264  145.7410  159.8563 O.2     1  UNL1       -0.2912
     13 C         141.6316  144.3732  160.4630 C.2     1  UNL1        0.1763
     14 C         141.0260  144.1008  161.8081 C.3     1  UNL1        0.0739
     15 C         141.5437  144.8138  163.0220 C.3     1  UNL1        0.0345
     16 C         142.2095  144.0385  164.1201 C.ar    1  UNL1       -0.0217
     17 C         141.3891  143.1772  165.0339 C.ar    1  UNL1       -0.0043
     18 C         142.0548  142.4021  166.1320 C.ar    1  UNL1       -0.0003
     19 C         143.5410  142.4882  166.3163 C.ar    1  UNL1       -0.0000
     20 C         144.3614  143.3495  165.4025 C.ar    1  UNL1       -0.0003
     21 C         143.6956  144.1247  164.3045 C.ar    1  UNL1       -0.0043
     22 C         137.9023  140.4439  158.1704 C.3     1  UNL1        0.1056
     23 N         138.5254  140.1987  159.5126 N.3     1  UNL1       -0.2682
     24 C         138.3595  141.2059  160.6117 C.3     1  UNL1        0.0897
     25 C         138.9826  140.9607  161.9540 C.3     1  UNL1        0.0901
     26 N         139.7715  139.7084  162.1972 N.3     1  UNL1       -0.2644
     27 C         139.9373  138.7012  161.0981 C.3     1  UNL1        0.0901
     28 C         139.3143  138.9464  159.7558 C.3     1  UNL1        0.0897
     29 C         140.3946  139.4632  163.5395 C.3     1  UNL1        0.1031
     30 C         141.8781  139.5998  163.7139 C.ar    1  UNL1       -0.0036
     31 C         142.5720  138.8751  164.8290 C.ar    1  UNL1       -0.0026
     32 C         144.0555  139.0117  165.0035 C.ar    1  UNL1       -0.0003
     33 C         144.8452  139.8730  164.0629 C.ar    1  UNL1       -0.0000
     34 C         144.1513  140.5976  162.9479 C.ar    1  UNL1       -0.0003
     35 C         142.6677  140.4611  162.7733 C.ar    1  UNL1       -0.0026
     36 C         139.5341  139.0814  164.7073 C.ar    1  UNL1       -0.0036
     37 C         139.2137  140.0947  165.7658 C.ar    1  UNL1       -0.0026
     38 C         138.3532  139.7128  166.9336 C.ar    1  UNL1       -0.0003
     39 C         137.8131  138.3177  167.0429 C.ar    1  UNL1       -0.0000
     40 C         138.1336  137.3044  165.9844 C.ar    1  UNL1       -0.0003
     41 C         138.9940  137.6862  164.8166 C.ar    1  UNL1       -0.0026
@<TRIPOS>BOND
     1    12    13    2
     2    13    14    1
     3    14    15    1
     4    15    16    1
     5    16    17   ar
     6    17    18   ar
     7    18    19   ar
     8    19    20   ar
     9    20    21   ar
    10    13     6    1
    11     6     7   ar
    12     7     8   ar
    13     8     9   ar
    14     9    10   ar
    15    10    11   ar
    16    11     5    1
    17     5     4    1
    18     4     1    1
    19     1     2    1
    20     1    22    1
    21    22    23    1
    22    23    24    1
    23    24    25    1
    24    25    26    1
    25    26    29    1
    26    29    30    1
    27    30    31   ar
    28    31    32   ar
    29    32    33   ar
    30    33    34   ar
    31    34    35   ar
    32    29    36    1
    33    36    37   ar
    34    37    38   ar
    35    38    39   ar
    36    39    40   ar
    37    40    41   ar
    38    26    27    1
    39    27    28    1
    40    21    16   ar
    41    11     6   ar
    42    28    23    1
    43    35    30   ar
    44    41    36   ar
    45     2     3    1
@<TRIPOS>MOLECULE
*****
 41 45 0 0 0
SMALL
GASTEIGER

@<TRIPOS>ATOM
      1 C         140.0147  145.8082  161.5999 C.3     1  UNL1        0.1700
      2 O         139.2411  147.0084  161.1402 O.3     1  UNL1       -0.3793
      3 H         138.7951  146.8045  160.3033 H       1  UNL1        0.2106
      4 C         140.0048  144.5511  160.7817 C.3     1  UNL1        0.2358
      5 O         138.7282  143.7846  160.5998 O.3     1  UNL1       -0.4727
      6 C         138.4379  141.2203  160.2997 C.ar    1  UNL1        0.0686
      7 C         138.4090  140.0113  159.4123 C.ar    1  UNL1        0.0059
      8 C         138.6413  140.1576  157.9377 C.ar    1  UNL1        0.0003
      9 C         138.9027  141.5129  157.3504 C.ar    1  UNL1        0.0031
     10 C         138.9316  142.7219  158.2378 C.ar    1  UNL1        0.0370
     11 C         138.6992  142.5756  159.7125 C.ar    1  UNL1        0.1413
     12 O         136.8511  141.3597  162.3522 O.2     1  UNL1       -0.2912
     13 C         138.2056  141.0741  161.7743 C.2     1  UNL1        0.1763
     14 C         139.3277  140.6422  162.6712 C.3     1  UNL1        0.0739
     15 C         140.7341  141.0692  162.3717 C.3     1  UNL1        0.0345
     16 C         141.7781  140.0409  162.0514 C.ar    1  UNL1       -0.0217
     17 C         141.3735  138.7137  161.4813 C.ar    1  UNL1       -0.0043
     18 C         142.4175  137.6855  161.1609 C.ar    1  UNL1       -0.0003
     19 C         143.8661  137.9843  161.4107 C.ar    1  UNL1       -0.0000
     20 C         144.2706  139.3114  161.9808 C.ar    1  UNL1       -0.0003
     21 C         143.2266  140.3397  162.3011 C.ar    1  UNL1       -0.0043
     22 C         140.7982  145.8653  162.8777 C.3     1  UNL1        0.1056
     23 N         140.7565  144.7113  163.8352 N.3     1  UNL1       -0.2682
     24 C         142.0248  144.0072  164.2168 C.3     1  UNL1        0.0897
     25 C         141.9831  142.8533  165.1742 C.3     1  UNL1        0.0901
     26 N         140.6732  142.4035  165.7501 N.3     1  UNL1       -0.2644
     27 C         139.4049  143.1076  165.3685 C.3     1  UNL1        0.0901
     28 C         139.4466  144.2615  164.4111 C.3     1  UNL1        0.0897
     29 C         140.6315  141.2496  166.7076 C.3     1  UNL1        0.1031
     30 C         140.0680  139.9306  166.2685 C.ar    1  UNL1       -0.0036
     31 C         138.6815  139.5329  166.6803 C.ar    1  UNL1       -0.0026
     32 C         138.1180  138.2140  166.2412 C.ar    1  UNL1       -0.0003
     33 C         138.9409  137.2927  165.3903 C.ar    1  UNL1       -0.0000
     34 C         140.3274  137.6904  164.9785 C.ar    1  UNL1       -0.0003
     35 C         140.8909  139.0094  165.4176 C.ar    1  UNL1       -0.0026
     36 C         141.1533  141.4146  168.1042 C.ar    1  UNL1       -0.0036
     37 C         140.2367  141.8778  169.1975 C.ar    1  UNL1       -0.0026
     38 C         140.7586  142.0428  170.5941 C.ar    1  UNL1       -0.0003
     39 C         142.1970  141.7446  170.8973 C.ar    1  UNL1       -0.0000
     40 C         143.1136  141.2814  169.8040 C.ar    1  UNL1       -0.0003
     41 C         142.5918  141.1164  168.4075 C.ar    1  UNL1       -0.0026
@<TRIPOS>BOND
     1    12    13    2
     2    13    14    1
     3    14    15    1
     4    15    16    1
     5    16    17   ar
     6    17    18   ar
     7    18    19   ar
     8    19    20   ar
     9    20    21   ar
    10    13     6    1
    11     6     7   ar
    12     7     8   ar
    13     8     9   ar
    14     9    10   ar
    15    10    11   ar
    16    11     5    1
    17     5     4    1
    18     4     1    1
    19     1     2    1
    20     1    22    1
    21    22    23    1
    22    23    24    1
    23    24    25    1
    24    25    26    1
    25    26    29    1
    26    29    30    1
    27    30    31   ar
    28    31    32   ar
    29    32    33   ar
    30    33    34   ar
    31    34    35   ar
    32    29    36    1
    33    36    37   ar
    34    37    38   ar
    35    38    39   ar
    36    39    40   ar
    37    40    41   ar
    38    26    27    1
    39    27    28    1
    40    21    16   ar
    41    11     6   ar
    42    28    23    1
    43    35    30   ar
    44    41    36   ar
    45     2     3    1
@<TRIPOS>MOLECULE
*****
 41 45 0 0 0
SMALL
GASTEIGER

@<TRIPOS>ATOM
      1 C         140.0591  145.7761  161.3001 C.3     1  UNL1        0.1700
      2 O         138.8812  146.6910  161.1400 O.3     1  UNL1       -0.3793
      3 H         138.4524  146.5197  160.2869 H       1  UNL1        0.2106
      4 C         140.3997  144.7954  160.2174 C.3     1  UNL1        0.2358
      5 O         140.5524  143.3396  160.5451 O.3     1  UNL1       -0.4727
      6 C         140.9649  141.2423  159.0683 C.ar    1  UNL1        0.0686
      7 C         140.4519  140.2017  158.1175 C.ar    1  UNL1        0.0059
      8 C         139.0135  140.2179  157.6926 C.ar    1  UNL1        0.0003
      9 C         138.0879  141.2747  158.2186 C.ar    1  UNL1        0.0031
     10 C         138.6009  142.3152  159.1694 C.ar    1  UNL1        0.0370
     11 C         140.0394  142.2990  159.5943 C.ar    1  UNL1        0.1413
     12 O         143.4835  141.5216  158.4951 O.2     1  UNL1       -0.2912
     13 C         142.4034  141.2261  159.4931 C.2     1  UNL1        0.1763
     14 C         142.7617  140.9144  160.9160 C.3     1  UNL1        0.0739
     15 C         142.2465  139.6626  161.5622 C.3     1  UNL1        0.0345
     16 C         140.7740  139.4868  161.7884 C.ar    1  UNL1       -0.0217
     17 C         140.0789  138.2580  161.2818 C.ar    1  UNL1       -0.0043
     18 C         138.6065  138.0822  161.5081 C.ar    1  UNL1       -0.0003
     19 C         137.8293  139.1352  162.2409 C.ar    1  UNL1       -0.0000
     20 C         138.5245  140.3641  162.7475 C.ar    1  UNL1       -0.0003
     21 C         139.9968  140.5398  162.5213 C.ar    1  UNL1       -0.0043
     22 C         140.8965  145.8421  162.5429 C.3     1  UNL1        0.1056
     23 N         140.8530  144.7196  163.5369 N.3     1  UNL1       -0.2682
     24 C         142.0668  143.8666  163.7584 C.3     1  UNL1        0.0897
     25 C         142.0234  142.7441  164.7524 C.3     1  UNL1        0.0901
     26 N         140.7662  142.4746  165.5250 N.3     1  UNL1       -0.2644
     27 C         139.5525  143.3276  165.3035 C.3     1  UNL1        0.0901
     28 C         139.5959  144.4501  164.3094 C.3     1  UNL1        0.0897
     29 C         140.7228  141.3521  166.5190 C.3     1  UNL1        0.1031
     30 C         141.2481  141.5600  167.9085 C.ar    1  UNL1       -0.0036
     31 C         142.4814  140.8356  168.3604 C.ar    1  UNL1       -0.0026
     32 C         143.0066  141.0435  169.7500 C.ar    1  UNL1       -0.0003
     33 C         142.2986  141.9760  170.6877 C.ar    1  UNL1       -0.0000
     34 C         141.0653  142.7004  170.2358 C.ar    1  UNL1       -0.0003
     35 C         140.5400  142.4925  168.8462 C.ar    1  UNL1       -0.0026
     36 C         140.1542  140.0216  166.1235 C.ar    1  UNL1       -0.0036
     37 C         141.0064  139.0305  165.3877 C.ar    1  UNL1       -0.0026
     38 C         140.4377  137.7000  164.9922 C.ar    1  UNL1       -0.0003
     39 C         139.0169  137.3606  165.3325 C.ar    1  UNL1       -0.0000
     40 C         138.1646  138.3517  166.0684 C.ar    1  UNL1       -0.0003
     41 C         138.7333  139.6821  166.4639 C.ar    1  UNL1       -0.0026
@<TRIPOS>BOND
     1    12    13    2
     2    13    14    1
     3    14    15    1
     4    15    16    1
     5    16    17   ar
     6    17    18   ar
     7    18    19   ar
     8    19    20   ar
     9    20    21   ar
    10    13     6    1
    11     6     7   ar
    12     7     8   ar
    13     8     9   ar
    14     9    10   ar
    15    10    11   ar
    16    11     5    1
    17     5     4    1
    18     4     1    1
    19     1     2    1
    20     1    22    1
    21    22    23    1
    22    23    24    1
    23    24    25    1
    24    25    26    1
    25    26    29    1
    26    29    30    1
    27    30    31   ar
    28    31    32   ar
    29    32    33   ar
    30    33    34   ar
    31    34    35   ar
    32    29    36    1
    33    36    37   ar
    34    37    38   ar
    35    38    39   ar
    36    39    40   ar
    37    40    41   ar
    38    26    27    1
    39    27    28    1
    40    21    16   ar
    41    11     6   ar
    42    28    23    1
    43    35    30   ar
    44    41    36   ar
    45     2     3    1
