@<TRIPOS>MOLECULE
*****
 24 27 0 0 0
SMALL
GASTEIGER

@<TRIPOS>ATOM
      1 O         138.1587  139.0821  162.5332 O.2     1  UNL1       -0.2526
      2 C         139.5947  138.6620  162.6407 C.2     1  UNL1        0.3039
      3 N         140.2150  138.4496  163.9898 N.am    1  UNL1       -0.2901
      4 N         140.4103  138.4542  161.3991 N.am    1  UNL1       -0.2641
      5 C         139.7899  138.6666  160.0499 C.3     1  UNL1        0.0969
      6 C         140.6054  138.4589  158.8083 C.3     1  UNL1        0.0460
      7 C         142.0415  138.0388  158.9158 C.3     1  UNL1        0.1103
      8 C         142.6618  137.8264  160.2649 C.3     1  UNL1        0.0460
      9 C         141.8462  138.0342  161.5065 C.3     1  UNL1        0.0969
     10 H         141.1575  138.1739  164.0603 H       1  UNL1        0.1509
     11 N         142.8571  137.8311  157.6742 N.ar    1  UNL1       -0.2320
     12 C         142.9368  136.5654  156.8731 C.ar    1  UNL1        0.1191
     13 C         143.8652  136.8046  155.7195 C.ar    1  UNL1        0.1441
     14 N         144.3592  138.2182  155.8075 N.ar    1  UNL1       -0.1271
     15 N         143.7361  138.8525  157.0155 N.ar    1  UNL1       -0.0638
     16 C         139.3994  138.6574  165.2314 C.3     1  UNL1        0.0774
     17 C         138.2246  138.2931  166.0899 C.3     1  UNL1        0.0259
     18 C         139.1616  139.3814  166.5234 C.3     1  UNL1        0.0420
     19 C         139.5653  140.4277  167.5195 C.ar    1  UNL1       -0.0208
     20 C         139.2684  140.2303  168.9765 C.ar    1  UNL1       -0.0042
     21 C         139.6721  141.2766  169.9726 C.ar    1  UNL1       -0.0003
     22 C         140.3727  142.5203  169.5117 C.ar    1  UNL1       -0.0000
     23 C         140.6695  142.7177  168.0548 C.ar    1  UNL1       -0.0003
     24 C         140.2658  141.6714  167.0587 C.ar    1  UNL1       -0.0042
@<TRIPOS>BOND
     1     1     2    2
     2     2     3   am
     3     3    16    1
     4    16    17    1
     5    17    18    1
     6    18    19    1
     7    19    20   ar
     8    20    21   ar
     9    21    22   ar
    10    22    23   ar
    11    23    24   ar
    12     2     4   am
    13     4     5    1
    14     5     6    1
    15     6     7    1
    16     7    11    1
    17    11    12   ar
    18    12    13   ar
    19    13    14   ar
    20    14    15   ar
    21     7     8    1
    22     8     9    1
    23    18    16    1
    24    24    19   ar
    25     9     4    1
    26    15    11   ar
    27     3    10    1
@<TRIPOS>MOLECULE
*****
 24 27 0 0 0
SMALL
GASTEIGER

@<TRIPOS>ATOM
      1 O         141.7549  138.2646  165.0770 O.2     1  UNL1       -0.2526
      2 C         140.8196  138.4421  163.9178 C.2     1  UNL1        0.3039
      3 N         139.3672  138.7258  164.1625 N.am    1  UNL1       -0.2901
      4 N         141.3368  138.3359  162.5138 N.am    1  UNL1       -0.2641
      5 C         142.7893  138.0522  162.2691 C.3     1  UNL1        0.0969
      6 C         143.3066  137.9459  160.8651 C.3     1  UNL1        0.0460
      7 C         142.3713  138.1234  159.7058 C.3     1  UNL1        0.1103
      8 C         140.9189  138.4071  159.9505 C.3     1  UNL1        0.0460
      9 C         140.4016  138.5133  161.3545 C.3     1  UNL1        0.0969
     10 H         138.7533  138.8423  163.4016 H       1  UNL1        0.1509
     11 N         142.8885  138.0172  158.3018 N.ar    1  UNL1       -0.2320
     12 C         142.6625  136.8690  157.3634 C.ar    1  UNL1        0.1191
     13 C         143.3569  137.1826  156.0713 C.ar    1  UNL1        0.1441
     14 N         144.0121  138.5247  156.2112 N.ar    1  UNL1       -0.1271
     15 N         143.7226  139.0404  157.5897 N.ar    1  UNL1       -0.0638
     16 C         138.8499  138.8321  165.5665 C.3     1  UNL1        0.0774
     17 C         137.9109  138.3747  166.6430 C.3     1  UNL1        0.0259
     18 C         138.8932  139.4735  166.9217 C.3     1  UNL1        0.0420
     19 C         139.4853  140.4783  167.8651 C.ar    1  UNL1       -0.0208
     20 C         139.2759  140.3334  169.3433 C.ar    1  UNL1       -0.0042
     21 C         139.8680  141.3382  170.2866 C.ar    1  UNL1       -0.0003
     22 C         140.6694  142.4878  169.7517 C.ar    1  UNL1       -0.0000
     23 C         140.8788  142.6326  168.2735 C.ar    1  UNL1       -0.0003
     24 C         140.2867  141.6279  167.3302 C.ar    1  UNL1       -0.0042
@<TRIPOS>BOND
     1     1     2    2
     2     2     3   am
     3     3    16    1
     4    16    17    1
     5    17    18    1
     6    18    19    1
     7    19    20   ar
     8    20    21   ar
     9    21    22   ar
    10    22    23   ar
    11    23    24   ar
    12     2     4   am
    13     4     5    1
    14     5     6    1
    15     6     7    1
    16     7    11    1
    17    11    12   ar
    18    12    13   ar
    19    13    14   ar
    20    14    15   ar
    21     7     8    1
    22     8     9    1
    23    18    16    1
    24    24    19   ar
    25     9     4    1
    26    15    11   ar
    27     3    10    1
@<TRIPOS>MOLECULE
*****
 24 27 0 0 0
SMALL
GASTEIGER

@<TRIPOS>ATOM
      1 O         138.4987  138.1118  163.3579 O.2     1  UNL1       -0.2526
      2 C         138.4087  139.6084  163.3095 C.2     1  UNL1        0.3039
      3 N         138.3408  140.3972  164.5835 N.am    1  UNL1       -0.2901
      4 N         138.3865  140.3160  161.9872 N.am    1  UNL1       -0.2641
      5 C         138.4544  139.5271  160.7131 C.3     1  UNL1        0.0969
      6 C         138.4322  140.2348  159.3907 C.3     1  UNL1        0.0460
      7 C         138.3421  141.7314  159.3424 C.3     1  UNL1        0.1103
      8 C         138.2742  142.5202  160.6164 C.3     1  UNL1        0.0460
      9 C         138.2964  141.8125  161.9388 C.3     1  UNL1        0.0969
     10 H         138.2817  141.3794  164.5518 H       1  UNL1        0.1509
     11 N         138.3199  142.4391  158.0200 N.ar    1  UNL1       -0.2320
     12 C         137.3467  142.1942  156.9052 C.ar    1  UNL1        0.1191
     13 C         137.6923  143.1197  155.7764 C.ar    1  UNL1        0.1441
     14 N         138.8793  143.9365  156.1936 N.ar    1  UNL1       -0.1271
     15 N         139.2671  143.5158  157.5802 N.ar    1  UNL1       -0.0638
     16 C         138.3629  139.6895  165.9059 C.3     1  UNL1        0.0774
     17 C         137.8166  138.6385  166.8261 C.3     1  UNL1        0.0259
     18 C         138.9477  139.5148  167.2761 C.3     1  UNL1        0.0420
     19 C         139.9385  139.9199  168.3270 C.ar    1  UNL1       -0.0208
     20 C         139.4610  140.3441  169.6842 C.ar    1  UNL1       -0.0042
     21 C         140.4518  140.7492  170.7350 C.ar    1  UNL1       -0.0003
     22 C         141.9200  140.7301  170.4287 C.ar    1  UNL1       -0.0000
     23 C         142.3975  140.3059  169.0715 C.ar    1  UNL1       -0.0003
     24 C         141.4068  139.9008  168.0206 C.ar    1  UNL1       -0.0042
@<TRIPOS>BOND
     1     1     2    2
     2     2     3   am
     3     3    16    1
     4    16    17    1
     5    17    18    1
     6    18    19    1
     7    19    20   ar
     8    20    21   ar
     9    21    22   ar
    10    22    23   ar
    11    23    24   ar
    12     2     4   am
    13     4     5    1
    14     5     6    1
    15     6     7    1
    16     7    11    1
    17    11    12   ar
    18    12    13   ar
    19    13    14   ar
    20    14    15   ar
    21     7     8    1
    22     8     9    1
    23    18    16    1
    24    24    19   ar
    25     9     4    1
    26    15    11   ar
    27     3    10    1
@<TRIPOS>MOLECULE
*****
 24 27 0 0 0
SMALL
GASTEIGER

@<TRIPOS>ATOM
      1 O         141.5818  141.2667  165.0041 O.2     1  UNL1       -0.2526
      2 C         140.4263  141.5067  164.0781 C.2     1  UNL1        0.3039
      3 N         139.0779  140.9321  164.3969 N.am    1  UNL1       -0.2901
      4 N         140.6193  142.3212  162.8334 N.am    1  UNL1       -0.2641
      5 C         141.9678  142.8958  162.5147 C.3     1  UNL1        0.0969
      6 C         142.1609  143.7103  161.2700 C.3     1  UNL1        0.0460
      7 C         141.0054  143.9502  160.3440 C.3     1  UNL1        0.1103
      8 C         139.6570  143.3757  160.6627 C.3     1  UNL1        0.0460
      9 C         139.4639  142.5612  161.9074 C.3     1  UNL1        0.0969
     10 H         138.3195  141.0896  163.7891 H       1  UNL1        0.1509
     11 N         141.1984  144.7648  159.0993 N.ar    1  UNL1       -0.2320
     12 C         140.1262  145.5013  158.3524 C.ar    1  UNL1        0.1191
     13 C         140.7626  146.1775  157.1744 C.ar    1  UNL1        0.1441
     14 N         142.2283  145.8589  157.1933 N.ar    1  UNL1       -0.1271
     15 N         142.4976  144.9858  158.3829 N.ar    1  UNL1       -0.0638
     16 C         138.8848  140.1176  165.6416 C.3     1  UNL1        0.0774
     17 C         138.1617  139.0349  166.3864 C.3     1  UNL1        0.0259
     18 C         139.2737  139.7896  167.0526 C.3     1  UNL1        0.0420
     19 C         140.1403  140.0359  168.2520 C.ar    1  UNL1       -0.0208
     20 C         141.6227  139.8253  168.1622 C.ar    1  UNL1       -0.0042
     21 C         142.4892  140.0716  169.3615 C.ar    1  UNL1       -0.0003
     22 C         141.8733  140.5284  170.6507 C.ar    1  UNL1       -0.0000
     23 C         140.3909  140.7389  170.7405 C.ar    1  UNL1       -0.0003
     24 C         139.5244  140.4927  169.5412 C.ar    1  UNL1       -0.0042
@<TRIPOS>BOND
     1     1     2    2
     2     2     3   am
     3     3    16    1
     4    16    17    1
     5    17    18    1
     6    18    19    1
     7    19    20   ar
     8    20    21   ar
     9    21    22   ar
    10    22    23   ar
    11    23    24   ar
    12     2     4   am
    13     4     5    1
    14     5     6    1
    15     6     7    1
    16     7    11    1
    17    11    12   ar
    18    12    13   ar
    19    13    14   ar
    20    14    15   ar
    21     7     8    1
    22     8     9    1
    23    18    16    1
    24    24    19   ar
    25     9     4    1
    26    15    11   ar
    27     3    10    1
@<TRIPOS>MOLECULE
*****
 24 27 0 0 0
SMALL
GASTEIGER

@<TRIPOS>ATOM
      1 O         139.2621  143.4560  165.4723 O.2     1  UNL1       -0.2526
      2 C         139.6929  142.5943  164.3225 C.2     1  UNL1        0.3039
      3 N         139.7936  141.1078  164.4958 N.am    1  UNL1       -0.2901
      4 N         140.0229  143.2192  162.9994 N.am    1  UNL1       -0.2641
      5 C         139.9222  144.7058  162.8261 C.3     1  UNL1        0.0969
      6 C         140.2522  145.3307  161.5030 C.3     1  UNL1        0.0460
      7 C         140.6830  144.4689  160.3532 C.3     1  UNL1        0.1103
      8 C         140.7837  142.9824  160.5265 C.3     1  UNL1        0.0460
      9 C         140.4536  142.3575  161.8496 C.3     1  UNL1        0.0969
     10 H         140.0763  140.5422  163.7412 H       1  UNL1        0.1509
     11 N         141.0130  145.0938  159.0301 N.ar    1  UNL1       -0.2320
     12 C         140.0385  145.7490  158.0969 C.ar    1  UNL1        0.1191
     13 C         140.7987  146.2334  156.8979 C.ar    1  UNL1        0.1441
     14 N         142.2431  145.8775  157.0901 N.ar    1  UNL1       -0.1271
     15 N         142.3756  145.1732  158.4079 N.ar    1  UNL1       -0.0638
     16 C         139.4635  140.4829  165.8189 C.3     1  UNL1        0.0774
     17 C         138.7378  139.4422  166.6191 C.3     1  UNL1        0.0259
     18 C         139.6176  140.4413  167.3104 C.3     1  UNL1        0.0420
     19 C         140.2144  140.9942  168.5707 C.ar    1  UNL1       -0.0208
     20 C         140.4681  142.4671  168.6970 C.ar    1  UNL1       -0.0042
     21 C         141.0650  143.0199  169.9572 C.ar    1  UNL1       -0.0003
     22 C         141.4081  142.0997  171.0911 C.ar    1  UNL1       -0.0000
     23 C         141.1544  140.6268  170.9647 C.ar    1  UNL1       -0.0003
     24 C         140.5575  140.0740  169.7045 C.ar    1  UNL1       -0.0042
@<TRIPOS>BOND
     1     1     2    2
     2     2     3   am
     3     3    16    1
     4    16    17    1
     5    17    18    1
     6    18    19    1
     7    19    20   ar
     8    20    21   ar
     9    21    22   ar
    10    22    23   ar
    11    23    24   ar
    12     2     4   am
    13     4     5    1
    14     5     6    1
    15     6     7    1
    16     7    11    1
    17    11    12   ar
    18    12    13   ar
    19    13    14   ar
    20    14    15   ar
    21     7     8    1
    22     8     9    1
    23    18    16    1
    24    24    19   ar
    25     9     4    1
    26    15    11   ar
    27     3    10    1
@<TRIPOS>MOLECULE
*****
 24 27 0 0 0
SMALL
GASTEIGER

@<TRIPOS>ATOM
      1 O         142.0355  138.3637  165.4681 O.2     1  UNL1       -0.2526
      2 C         141.2488  139.0854  164.4143 C.2     1  UNL1        0.3039
      3 N         139.9084  139.6703  164.7479 N.am    1  UNL1       -0.2901
      4 N         141.8025  139.2221  163.0270 N.am    1  UNL1       -0.2641
      5 C         143.1429  138.6372  162.6934 C.3     1  UNL1        0.0969
      6 C         143.6966  138.7739  161.3060 C.3     1  UNL1        0.0460
      7 C         142.9098  139.4956  160.2523 C.3     1  UNL1        0.1103
      8 C         141.5695  140.0805  160.5859 C.3     1  UNL1        0.0460
      9 C         141.0158  139.9437  161.9732 C.3     1  UNL1        0.0969
     10 H         139.3921  140.1439  164.0563 H       1  UNL1        0.1509
     11 N         143.4635  139.6323  158.8649 N.ar    1  UNL1       -0.2320
     12 C         144.1590  140.8391  158.3081 C.ar    1  UNL1        0.1191
     13 C         144.5442  140.5389  156.8898 C.ar    1  UNL1        0.1441
     14 N         144.0869  139.1466  156.5701 N.ar    1  UNL1       -0.1271
     15 N         143.4190  138.5863  157.7908 N.ar    1  UNL1       -0.0638
     16 C         139.3548  139.5335  166.1353 C.3     1  UNL1        0.0774
     17 C         138.2659  139.0765  167.0602 C.3     1  UNL1        0.0259
     18 C         139.4846  139.7538  167.6133 C.3     1  UNL1        0.0420
     19 C         140.2633  140.2720  168.7860 C.ar    1  UNL1       -0.0208
     20 C         141.6300  139.7277  169.0784 C.ar    1  UNL1       -0.0042
     21 C         142.4086  140.2459  170.2511 C.ar    1  UNL1       -0.0003
     22 C         141.8204  141.3085  171.1314 C.ar    1  UNL1       -0.0000
     23 C         140.4536  141.8529  170.8390 C.ar    1  UNL1       -0.0003
     24 C         139.6751  141.3347  169.6663 C.ar    1  UNL1       -0.0042
@<TRIPOS>BOND
     1     1     2    2
     2     2     3   am
     3     3    16    1
     4    16    17    1
     5    17    18    1
     6    18    19    1
     7    19    20   ar
     8    20    21   ar
     9    21    22   ar
    10    22    23   ar
    11    23    24   ar
    12     2     4   am
    13     4     5    1
    14     5     6    1
    15     6     7    1
    16     7    11    1
    17    11    12   ar
    18    12    13   ar
    19    13    14   ar
    20    14    15   ar
    21     7     8    1
    22     8     9    1
    23    18    16    1
    24    24    19   ar
    25     9     4    1
    26    15    11   ar
    27     3    10    1
@<TRIPOS>MOLECULE
*****
 24 27 0 0 0
SMALL
GASTEIGER

@<TRIPOS>ATOM
      1 O         140.5359  137.3534  164.8325 O.2     1  UNL1       -0.2526
      2 C         141.1026  138.4818  164.0226 C.2     1  UNL1        0.3039
      3 N         142.2247  139.3107  164.5736 N.am    1  UNL1       -0.2901
      4 N         140.5472  138.7810  162.6618 N.am    1  UNL1       -0.2641
      5 C         139.4250  137.9520  162.1108 C.3     1  UNL1        0.0969
      6 C         138.8695  138.2513  160.7500 C.3     1  UNL1        0.0460
      7 C         139.4363  139.3796  159.9401 C.3     1  UNL1        0.1103
      8 C         140.5584  140.2086  160.4911 C.3     1  UNL1        0.0460
      9 C         141.1138  139.9093  161.8519 C.3     1  UNL1        0.0969
     10 H         142.5967  140.0512  164.0421 H       1  UNL1        0.1509
     11 N         138.8808  139.6789  158.5793 N.ar    1  UNL1       -0.2320
     12 C         139.5915  139.4794  157.2734 C.ar    1  UNL1        0.1191
     13 C         138.6671  139.9074  156.1724 C.ar    1  UNL1        0.1441
     14 N         137.3851  140.3715  156.7978 N.ar    1  UNL1       -0.1271
     15 N         137.5172  140.2303  158.2852 N.ar    1  UNL1       -0.0638
     16 C         142.7802  139.0114  165.9345 C.3     1  UNL1        0.0774
     17 C         143.6379  138.1683  166.8308 C.3     1  UNL1        0.0259
     18 C         142.8845  139.3362  167.3952 C.3     1  UNL1        0.0420
     19 C         142.5097  140.1980  168.5643 C.ar    1  UNL1       -0.0208
     20 C         143.0435  141.5960  168.6672 C.ar    1  UNL1       -0.0042
     21 C         142.6688  142.4577  169.8364 C.ar    1  UNL1       -0.0003
     22 C         141.7602  141.9214  170.9026 C.ar    1  UNL1       -0.0000
     23 C         141.2264  140.5234  170.7998 C.ar    1  UNL1       -0.0003
     24 C         141.6012  139.6617  169.6306 C.ar    1  UNL1       -0.0042
@<TRIPOS>BOND
     1     1     2    2
     2     2     3   am
     3     3    16    1
     4    16    17    1
     5    17    18    1
     6    18    19    1
     7    19    20   ar
     8    20    21   ar
     9    21    22   ar
    10    22    23   ar
    11    23    24   ar
    12     2     4   am
    13     4     5    1
    14     5     6    1
    15     6     7    1
    16     7    11    1
    17    11    12   ar
    18    12    13   ar
    19    13    14   ar
    20    14    15   ar
    21     7     8    1
    22     8     9    1
    23    18    16    1
    24    24    19   ar
    25     9     4    1
    26    15    11   ar
    27     3    10    1
@<TRIPOS>MOLECULE
*****
 24 27 0 0 0
SMALL
GASTEIGER

@<TRIPOS>ATOM
      1 O         140.3544  138.2604  160.1551 O.2     1  UNL1       -0.2526
      2 C         141.7029  138.3162  160.8096 C.2     1  UNL1        0.3039
      3 N         142.9444  138.1468  159.9849 N.am    1  UNL1       -0.2901
      4 N         141.8100  138.5413  162.2887 N.am    1  UNL1       -0.2641
      5 C         140.5684  138.7106  163.1133 C.3     1  UNL1        0.0969
      6 C         140.6754  138.9358  164.5925 C.3     1  UNL1        0.0460
      7 C         142.0240  138.9916  165.2470 C.3     1  UNL1        0.1103
      8 C         143.2655  138.8222  164.4224 C.3     1  UNL1        0.0460
      9 C         143.1584  138.5971  162.9432 C.3     1  UNL1        0.0969
     10 H         143.8295  138.1834  160.4145 H       1  UNL1        0.1509
     11 N         142.1310  139.2167  166.7261 N.ar    1  UNL1       -0.2320
     12 C         141.1612  139.9859  167.5734 C.ar    1  UNL1        0.1191
     13 C         141.6575  139.9568  168.9886 C.ar    1  UNL1        0.1441
     14 N         142.9340  139.1696  169.0161 N.ar    1  UNL1       -0.1271
     15 N         143.2267  138.7122  167.6178 N.ar    1  UNL1       -0.0638
     16 C         142.8374  137.9217  158.5058 C.3     1  UNL1        0.0774
     17 C         142.8046  138.4651  157.1081 C.3     1  UNL1        0.0259
     18 C         142.6848  136.9883  157.3416 C.3     1  UNL1        0.0420
     19 C         142.5275  135.5966  156.8042 C.ar    1  UNL1       -0.0208
     20 C         143.3051  134.4662  157.4104 C.ar    1  UNL1       -0.0042
     21 C         143.1478  133.0747  156.8730 C.ar    1  UNL1       -0.0003
     22 C         142.2129  132.8135  155.7295 C.ar    1  UNL1       -0.0000
     23 C         141.4353  133.9439  155.1233 C.ar    1  UNL1       -0.0003
     24 C         141.5926  135.3355  155.6606 C.ar    1  UNL1       -0.0042
@<TRIPOS>BOND
     1     1     2    2
     2     2     3   am
     3     3    16    1
     4    16    17    1
     5    17    18    1
     6    18    19    1
     7    19    20   ar
     8    20    21   ar
     9    21    22   ar
    10    22    23   ar
    11    23    24   ar
    12     2     4   am
    13     4     5    1
    14     5     6    1
    15     6     7    1
    16     7    11    1
    17    11    12   ar
    18    12    13   ar
    19    13    14   ar
    20    14    15   ar
    21     7     8    1
    22     8     9    1
    23    18    16    1
    24    24    19   ar
    25     9     4    1
    26    15    11   ar
    27     3    10    1
@<TRIPOS>MOLECULE
*****
 24 27 0 0 0
SMALL
GASTEIGER

@<TRIPOS>ATOM
      1 O         143.2088  140.3825  163.4917 O.2     1  UNL1       -0.2526
      2 C         141.9843  139.5312  163.3304 C.2     1  UNL1        0.3039
      3 N         141.3482  138.8969  164.5316 N.am    1  UNL1       -0.2901
      4 N         141.3960  139.3143  161.9677 N.am    1  UNL1       -0.2641
      5 C         142.0321  139.9487  160.7665 C.3     1  UNL1        0.0969
      6 C         141.4438  139.7318  159.4038 C.3     1  UNL1        0.0460
      7 C         140.2193  138.8805  159.2425 C.3     1  UNL1        0.1103
      8 C         139.5832  138.2462  160.4437 C.3     1  UNL1        0.0460
      9 C         140.1715  138.4631  161.8063 C.3     1  UNL1        0.0969
     10 H         140.5446  138.3382  164.4257 H       1  UNL1        0.1509
     11 N         139.6309  138.6636  157.8798 N.ar    1  UNL1       -0.2320
     12 C         139.9695  137.5434  156.9414 C.ar    1  UNL1        0.1191
     13 C         139.1485  137.7163  155.6979 C.ar    1  UNL1        0.1441
     14 N         138.3025  138.9432  155.8679 N.ar    1  UNL1       -0.1271
     15 N         138.6007  139.5287  157.2163 N.ar    1  UNL1       -0.0638
     16 C         141.9366  139.1138  165.8942 C.3     1  UNL1        0.0774
     17 C         143.0119  138.8400  166.9035 C.3     1  UNL1        0.0259
     18 C         141.8803  139.7634  167.2451 C.3     1  UNL1        0.0420
     19 C         141.1943  140.6715  168.2223 C.ar    1  UNL1       -0.0208
     20 C         140.0535  140.1582  169.0498 C.ar    1  UNL1       -0.0042
     21 C         139.3676  141.0664  170.0270 C.ar    1  UNL1       -0.0003
     22 C         139.8226  142.4878  170.1766 C.ar    1  UNL1       -0.0000
     23 C         140.9635  143.0012  169.3490 C.ar    1  UNL1       -0.0003
     24 C         141.6493  142.0930  168.3719 C.ar    1  UNL1       -0.0042
@<TRIPOS>BOND
     1     1     2    2
     2     2     3   am
     3     3    16    1
     4    16    17    1
     5    17    18    1
     6    18    19    1
     7    19    20   ar
     8    20    21   ar
     9    21    22   ar
    10    22    23   ar
    11    23    24   ar
    12     2     4   am
    13     4     5    1
    14     5     6    1
    15     6     7    1
    16     7    11    1
    17    11    12   ar
    18    12    13   ar
    19    13    14   ar
    20    14    15   ar
    21     7     8    1
    22     8     9    1
    23    18    16    1
    24    24    19   ar
    25     9     4    1
    26    15    11   ar
    27     3    10    1
