@<TRIPOS>MOLECULE
*****
 31 35 0 0 0
SMALL
GASTEIGER

@<TRIPOS>ATOM
      1 C         143.3517  142.5094  167.0728 C.3     1  UNL1        0.0285
      2 C         142.5488  141.6118  166.1785 C.3     1  UNL1        0.1321
      3 C         142.9553  141.4207  164.7474 C.3     1  UNL1        0.2279
      4 O         142.1524  140.5231  163.8531 O.3     1  UNL1       -0.4707
      5 C         140.9429  139.8168  164.3899 C.ar    1  UNL1        0.1697
      6 C         140.1400  138.9193  163.4956 C.ar    1  UNL1        0.1115
      7 C         138.9305  138.2129  164.0325 C.ar    1  UNL1        0.1564
      8 F         138.1276  137.3154  163.1382 F       1  UNL1       -0.2028
      9 C         138.5239  138.4040  165.4637 C.ar    1  UNL1        0.0326
     10 C         139.3269  139.3016  166.3580 C.ar    1  UNL1        0.0214
     11 C         138.9203  139.4927  167.7891 C.ar    1  UNL1        0.0075
     12 C         139.7233  140.3903  168.6834 C.ar    1  UNL1        0.0702
     13 C         140.9327  141.0966  168.1465 C.ar    1  UNL1        0.2620
     14 O         141.7356  141.9942  169.0408 O.2     1  UNL1       -0.2669
     15 N         141.3393  140.9055  166.7153 N.ar    1  UNL1       -0.2909
     16 C         140.5364  140.0079  165.8211 C.ar    1  UNL1        0.0980
     17 N         140.5465  138.7281  162.0645 N.pl3   1  UNL1       -0.3033
     18 C         141.8606  138.1854  161.5862 C.3     1  UNL1        0.0910
     19 C         141.8365  138.1680  160.0864 C.3     1  UNL1        0.0227
     20 C         142.8530  137.7365  159.0712 C.3     1  UNL1        0.0018
     21 C         142.5406  137.8369  157.6076 C.3     1  UNL1        0.0014
     22 C         141.2118  138.3687  157.1590 C.3     1  UNL1        0.0155
     23 C         140.1952  138.8002  158.1742 C.3     1  UNL1        0.0525
     24 N         138.8663  139.3321  157.7257 N.3     1  UNL1       -0.3221
     25 C         140.5076  138.6999  159.6379 C.3     1  UNL1        0.0356
     26 C         139.7103  139.0460  160.8604 C.3     1  UNL1        0.0923
     27 H         138.8258  139.3301  156.7065 H       1  UNL1        0.1188
     28 H         138.7483  140.2854  158.0688 H       1  UNL1        0.1188
     29 C         139.3167  140.5814  170.1146 C.2     1  UNL1        0.0775
     30 O         139.2734  139.4059  171.0453 O.co2   1  UNL1       -0.5444
     31 O         138.9534  141.9480  170.6149 O.co2   1  UNL1       -0.5444
@<TRIPOS>UNITY_ATOM_ATTR
30 1
charge -1
@<TRIPOS>BOND
     1     2     1    1
     2     2     3    1
     3     3     4    1
     4     4     5    1
     5     5     6   ar
     6     6    17    1
     7    17    18    1
     8    19    18    1
     9    19    20    1
    10    20    21    1
    11    21    22    1
    12    22    23    1
    13    23    24    1
    14    23    25    1
    15    25    26    1
    16     6     7   ar
    17     7     8    1
    18     7     9   ar
    19     9    10   ar
    20    10    11   ar
    21    11    12   ar
    22    12    29    1
    23    29    30   ar
    24    29    31   ar
    25    12    13   ar
    26    13    14    2
    27    13    15   ar
    28    15    16   ar
    29    15     2    1
    30    16     5   ar
    31    26    17    1
    32    16    10   ar
    33    25    19    1
    34    24    27    1
    35    24    28    1
@<TRIPOS>MOLECULE
*****
 31 35 0 0 0
SMALL
GASTEIGER

@<TRIPOS>ATOM
      1 C         137.8185  138.8590  166.4979 C.3     1  UNL1        0.0285
      2 C         138.9983  139.6282  165.9818 C.3     1  UNL1        0.1321
      3 C         139.2441  139.7228  164.5051 C.3     1  UNL1        0.2279
      4 O         140.4240  140.4920  163.9890 O.3     1  UNL1       -0.4707
      5 C         141.3580  141.1665  164.9495 C.ar    1  UNL1        0.1697
      6 C         142.5378  141.9356  164.4334 C.ar    1  UNL1        0.1115
      7 C         143.4718  142.6101  165.3939 C.ar    1  UNL1        0.1564
      8 F         144.6517  143.3793  164.8777 F       1  UNL1       -0.2028
      9 C         143.2260  142.5155  166.8706 C.ar    1  UNL1        0.0326
     10 C         142.0462  141.7463  167.3868 C.ar    1  UNL1        0.0214
     11 C         141.8004  141.6517  168.8634 C.ar    1  UNL1        0.0075
     12 C         140.6205  140.8825  169.3796 C.ar    1  UNL1        0.0702
     13 C         139.6865  140.2080  168.4191 C.ar    1  UNL1        0.2620
     14 O         138.5067  139.4389  168.9352 O.2     1  UNL1       -0.2669
     15 N         139.9323  140.3027  166.9423 N.ar    1  UNL1       -0.2909
     16 C         141.1122  141.0718  166.4262 C.ar    1  UNL1        0.0980
     17 N         142.7837  142.0303  162.9567 N.pl3   1  UNL1       -0.3033
     18 C         143.4758  141.0032  162.1105 C.3     1  UNL1        0.0910
     19 C         143.5004  141.5068  160.6977 C.3     1  UNL1        0.0227
     20 C         144.0518  140.9197  159.4323 C.3     1  UNL1        0.0018
     21 C         143.9262  141.6708  158.1400 C.3     1  UNL1        0.0014
     22 C         143.2492  143.0091  158.1131 C.3     1  UNL1        0.0155
     23 C         142.6978  143.5963  159.3785 C.3     1  UNL1        0.0525
     24 N         142.0208  144.9345  159.3516 N.3     1  UNL1       -0.3221
     25 C         142.8234  142.8451  160.6708 C.3     1  UNL1        0.0356
     26 C         142.3804  143.1686  162.0669 C.3     1  UNL1        0.0923
     27 H         142.0250  145.2985  158.3988 H       1  UNL1        0.1188
     28 H         142.5191  145.5800  159.9643 H       1  UNL1        0.1188
     29 C         140.3748  140.7879  170.8563 C.2     1  UNL1        0.0775
     30 O         139.8663  139.5084  171.4515 O.co2   1  UNL1       -0.5444
     31 O         140.6374  141.9728  171.7378 O.co2   1  UNL1       -0.5444
@<TRIPOS>UNITY_ATOM_ATTR
30 1
charge -1
@<TRIPOS>BOND
     1     2     1    1
     2     2     3    1
     3     3     4    1
     4     4     5    1
     5     5     6   ar
     6     6    17    1
     7    17    18    1
     8    19    18    1
     9    19    20    1
    10    20    21    1
    11    21    22    1
    12    22    23    1
    13    23    24    1
    14    23    25    1
    15    25    26    1
    16     6     7   ar
    17     7     8    1
    18     7     9   ar
    19     9    10   ar
    20    10    11   ar
    21    11    12   ar
    22    12    29    1
    23    29    30   ar
    24    29    31   ar
    25    12    13   ar
    26    13    14    2
    27    13    15   ar
    28    15    16   ar
    29    15     2    1
    30    16     5   ar
    31    26    17    1
    32    16    10   ar
    33    25    19    1
    34    24    27    1
    35    24    28    1
@<TRIPOS>MOLECULE
*****
 31 35 0 0 0
SMALL
GASTEIGER

@<TRIPOS>ATOM
      1 C         139.9652  144.5485  160.9519 C.3     1  UNL1        0.0285
      2 C         139.8599  143.3485  161.8457 C.3     1  UNL1        0.1321
      3 C         140.3410  143.4255  163.2644 C.3     1  UNL1        0.2279
      4 O         140.2358  142.2255  164.1582 O.3     1  UNL1       -0.4707
      5 C         139.6495  140.9485  163.6334 C.ar    1  UNL1        0.1697
      6 C         139.5442  139.7485  164.5272 C.ar    1  UNL1        0.1115
      7 C         138.9579  138.4715  164.0024 C.ar    1  UNL1        0.1564
      8 F         138.8527  137.2715  164.8962 F       1  UNL1       -0.2028
      9 C         138.4768  138.3945  162.5837 C.ar    1  UNL1        0.0326
     10 C         138.5820  139.5945  161.6899 C.ar    1  UNL1        0.0214
     11 C         138.1009  139.5175  160.2712 C.ar    1  UNL1        0.0075
     12 C         138.2061  140.7175  159.3774 C.ar    1  UNL1        0.0702
     13 C         138.7925  141.9945  159.9022 C.ar    1  UNL1        0.2620
     14 O         138.8977  143.1945  159.0084 O.2     1  UNL1       -0.2669
     15 N         139.2736  142.0715  161.3209 N.ar    1  UNL1       -0.2909
     16 C         139.1684  140.8715  162.2148 C.ar    1  UNL1        0.0980
     17 N         140.0253  139.8255  165.9458 N.pl3   1  UNL1       -0.3033
     18 C         141.4551  139.7709  166.3962 C.3     1  UNL1        0.0910
     19 C         141.4745  139.8823  167.8920 C.3     1  UNL1        0.0227
     20 C         142.6000  139.8873  168.8836 C.3     1  UNL1        0.0018
     21 C         142.3078  140.0156  170.3492 C.3     1  UNL1        0.0014
     22 C         140.8900  140.1390  170.8233 C.3     1  UNL1        0.0155
     23 C         139.7645  140.1340  169.8317 C.3     1  UNL1        0.0525
     24 N         138.3468  140.2574  170.3058 N.3     1  UNL1       -0.3221
     25 C         140.0567  140.0056  168.3661 C.3     1  UNL1        0.0356
     26 C         139.1611  139.9705  167.1633 C.3     1  UNL1        0.0923
     27 H         138.3338  140.3347  171.3228 H       1  UNL1        0.1188
     28 H         137.8199  139.4317  170.0209 H       1  UNL1        0.1188
     29 C         137.7250  140.6405  157.9587 C.2     1  UNL1        0.0775
     30 O         136.2705  140.4128  157.6713 O.co2   1  UNL1       -0.5444
     31 O         138.6984  140.7911  156.8274 O.co2   1  UNL1       -0.5444
@<TRIPOS>UNITY_ATOM_ATTR
30 1
charge -1
@<TRIPOS>BOND
     1     2     1    1
     2     2     3    1
     3     3     4    1
     4     4     5    1
     5     5     6   ar
     6     6    17    1
     7    17    18    1
     8    19    18    1
     9    19    20    1
    10    20    21    1
    11    21    22    1
    12    22    23    1
    13    23    24    1
    14    23    25    1
    15    25    26    1
    16     6     7   ar
    17     7     8    1
    18     7     9   ar
    19     9    10   ar
    20    10    11   ar
    21    11    12   ar
    22    12    29    1
    23    29    30   ar
    24    29    31   ar
    25    12    13   ar
    26    13    14    2
    27    13    15   ar
    28    15    16   ar
    29    15     2    1
    30    16     5   ar
    31    26    17    1
    32    16    10   ar
    33    25    19    1
    34    24    27    1
    35    24    28    1
@<TRIPOS>MOLECULE
*****
 31 35 0 0 0
SMALL
GASTEIGER

@<TRIPOS>ATOM
      1 C         137.8648  138.8288  166.7020 C.3     1  UNL1        0.0285
      2 C         139.0458  139.5659  166.1436 C.3     1  UNL1        0.1321
      3 C         139.2880  139.5829  164.6634 C.3     1  UNL1        0.2279
      4 O         140.4690  140.3200  164.1050 O.3     1  UNL1       -0.4707
      5 C         141.4079  141.0402  165.0269 C.ar    1  UNL1        0.1697
      6 C         142.5890  141.7773  164.4685 C.ar    1  UNL1        0.1115
      7 C         143.5278  142.4975  165.3903 C.ar    1  UNL1        0.1564
      8 F         144.7089  143.2346  164.8319 F       1  UNL1       -0.2028
      9 C         143.2857  142.4805  166.8706 C.ar    1  UNL1        0.0326
     10 C         142.1047  141.7434  167.4290 C.ar    1  UNL1        0.0214
     11 C         141.8625  141.7264  168.9092 C.ar    1  UNL1        0.0075
     12 C         140.6815  140.9893  169.4675 C.ar    1  UNL1        0.0702
     13 C         139.7426  140.2691  168.5457 C.ar    1  UNL1        0.2620
     14 O         138.5615  139.5320  169.1041 O.2     1  UNL1       -0.2669
     15 N         139.9847  140.2861  167.0654 N.ar    1  UNL1       -0.2909
     16 C         141.1658  141.0232  166.5070 C.ar    1  UNL1        0.0980
     17 N         142.8311  141.7943  162.9883 N.pl3   1  UNL1       -0.3033
     18 C         142.7788  143.0019  162.1001 C.3     1  UNL1        0.0910
     19 C         143.0835  142.5606  160.6992 C.3     1  UNL1        0.0227
     20 C         143.1729  143.3154  159.4061 C.3     1  UNL1        0.0018
     21 C         143.5030  142.5899  158.1354 C.3     1  UNL1        0.0014
     22 C         143.7435  141.1095  158.1577 C.3     1  UNL1        0.0155
     23 C         143.6541  140.3546  159.4509 C.3     1  UNL1        0.0525
     24 N         143.8946  138.8742  159.4733 N.3     1  UNL1       -0.3221
     25 C         143.3241  141.0801  160.7216 C.3     1  UNL1        0.0356
     26 C         143.1681  140.6065  162.1363 C.3     1  UNL1        0.0923
     27 H         144.1044  138.5495  158.5294 H       1  UNL1        0.1188
     28 H         143.0606  138.3994  159.8186 H       1  UNL1        0.1188
     29 C         140.4393  140.9724  170.9478 C.2     1  UNL1        0.0775
     30 O         140.0242  139.7002  171.6254 O.co2   1  UNL1       -0.5444
     31 O         140.6123  142.2277  171.7505 O.co2   1  UNL1       -0.5444
@<TRIPOS>UNITY_ATOM_ATTR
30 1
charge -1
@<TRIPOS>BOND
     1     2     1    1
     2     2     3    1
     3     3     4    1
     4     4     5    1
     5     5     6   ar
     6     6    17    1
     7    17    18    1
     8    19    18    1
     9    19    20    1
    10    20    21    1
    11    21    22    1
    12    22    23    1
    13    23    24    1
    14    23    25    1
    15    25    26    1
    16     6     7   ar
    17     7     8    1
    18     7     9   ar
    19     9    10   ar
    20    10    11   ar
    21    11    12   ar
    22    12    29    1
    23    29    30   ar
    24    29    31   ar
    25    12    13   ar
    26    13    14    2
    27    13    15   ar
    28    15    16   ar
    29    15     2    1
    30    16     5   ar
    31    26    17    1
    32    16    10   ar
    33    25    19    1
    34    24    27    1
    35    24    28    1
@<TRIPOS>MOLECULE
*****
 31 35 0 0 0
SMALL
GASTEIGER

@<TRIPOS>ATOM
      1 C         143.3525  138.6803  166.8454 C.3     1  UNL1        0.0285
      2 C         142.5448  139.7825  166.2265 C.3     1  UNL1        0.1321
      3 C         142.4442  139.8914  164.7339 C.3     1  UNL1        0.2279
      4 O         141.6366  140.9935  164.1151 O.3     1  UNL1       -0.4707
      5 C         140.9295  141.9867  164.9889 C.ar    1  UNL1        0.1697
      6 C         140.1218  143.0889  164.3701 C.ar    1  UNL1        0.1115
      7 C         139.4147  144.0820  165.2439 C.ar    1  UNL1        0.1564
      8 F         138.6070  145.1842  164.6251 F       1  UNL1       -0.2028
      9 C         139.5153  143.9731  166.7366 C.ar    1  UNL1        0.0326
     10 C         140.3230  142.8710  167.3554 C.ar    1  UNL1        0.0214
     11 C         140.4236  142.7620  168.8480 C.ar    1  UNL1        0.0075
     12 C         141.2312  141.6599  169.4668 C.ar    1  UNL1        0.0702
     13 C         141.9383  140.6667  168.5930 C.ar    1  UNL1        0.2620
     14 O         142.7460  139.5646  169.2119 O.2     1  UNL1       -0.2669
     15 N         141.8377  140.7756  167.1003 N.ar    1  UNL1       -0.2909
     16 C         141.0301  141.8778  166.4815 C.ar    1  UNL1        0.0980
     17 N         140.0212  143.1978  162.8775 N.pl3   1  UNL1       -0.3033
     18 C         139.0914  142.4166  161.9970 C.3     1  UNL1        0.0910
     19 C         139.3283  142.8431  160.5785 C.3     1  UNL1        0.0227
     20 C         138.7031  142.4151  159.2840 C.3     1  UNL1        0.0018
     21 C         139.1541  143.0319  157.9932 C.3     1  UNL1        0.0014
     22 C         140.2303  144.0767  157.9969 C.3     1  UNL1        0.0155
     23 C         140.8555  144.5048  159.2915 C.3     1  UNL1        0.0525
     24 N         141.9317  145.5496  159.2953 N.3     1  UNL1       -0.3221
     25 C         140.4045  143.8880  160.5823 C.3     1  UNL1        0.0356
     26 C         140.8328  144.1072  162.0031 C.3     1  UNL1        0.0923
     27 H         142.1112  145.8563  158.3392 H       1  UNL1        0.1188
     28 H         142.7854  145.1571  159.6923 H       1  UNL1        0.1188
     29 C         141.3318  141.5510  170.9595 C.2     1  UNL1        0.0775
     30 O         142.2486  142.4642  171.7181 O.co2   1  UNL1       -0.5444
     31 O         140.5155  140.5288  171.6936 O.co2   1  UNL1       -0.5444
@<TRIPOS>UNITY_ATOM_ATTR
30 1
charge -1
@<TRIPOS>BOND
     1     2     1    1
     2     2     3    1
     3     3     4    1
     4     4     5    1
     5     5     6   ar
     6     6    17    1
     7    17    18    1
     8    19    18    1
     9    19    20    1
    10    20    21    1
    11    21    22    1
    12    22    23    1
    13    23    24    1
    14    23    25    1
    15    25    26    1
    16     6     7   ar
    17     7     8    1
    18     7     9   ar
    19     9    10   ar
    20    10    11   ar
    21    11    12   ar
    22    12    29    1
    23    29    30   ar
    24    29    31   ar
    25    12    13   ar
    26    13    14    2
    27    13    15   ar
    28    15    16   ar
    29    15     2    1
    30    16     5   ar
    31    26    17    1
    32    16    10   ar
    33    25    19    1
    34    24    27    1
    35    24    28    1
@<TRIPOS>MOLECULE
*****
 31 35 0 0 0
SMALL
GASTEIGER

@<TRIPOS>ATOM
      1 C         138.4310  139.4826  166.8015 C.3     1  UNL1        0.0285
      2 C         139.4114  140.3809  166.1073 C.3     1  UNL1        0.1321
      3 C         139.1707  140.7984  164.6869 C.3     1  UNL1        0.2279
      4 O         140.1511  141.6967  163.9928 O.3     1  UNL1       -0.4707
      5 C         141.3723  142.1774  164.7191 C.ar    1  UNL1        0.1697
      6 C         142.3528  143.0757  164.0249 C.ar    1  UNL1        0.1115
      7 C         143.5739  143.5565  164.7512 C.ar    1  UNL1        0.1564
      8 F         144.5544  144.4548  164.0571 F       1  UNL1       -0.2028
      9 C         143.8147  143.1390  166.1718 C.ar    1  UNL1        0.0326
     10 C         142.8343  142.2407  166.8659 C.ar    1  UNL1        0.0214
     11 C         143.0750  141.8232  168.2863 C.ar    1  UNL1        0.0075
     12 C         142.0945  140.9249  168.9805 C.ar    1  UNL1        0.0702
     13 C         140.8734  140.4441  168.2542 C.ar    1  UNL1        0.2620
     14 O         139.8929  139.5458  168.9483 O.2     1  UNL1       -0.2669
     15 N         140.6326  140.8616  166.8336 N.ar    1  UNL1       -0.2909
     16 C         141.6130  141.7599  166.1395 C.ar    1  UNL1        0.0980
     17 N         142.1120  143.4932  162.6045 N.pl3   1  UNL1       -0.3033
     18 C         141.0294  144.4156  162.1280 C.3     1  UNL1        0.0910
     19 C         141.1599  144.5541  160.6401 C.3     1  UNL1        0.0227
     20 C         140.3698  145.3341  159.6315 C.3     1  UNL1        0.0018
     21 C         140.7430  145.2773  158.1798 C.3     1  UNL1        0.0014
     22 C         141.9064  144.4405  157.7366 C.3     1  UNL1        0.0155
     23 C         142.6966  143.6605  158.7453 C.3     1  UNL1        0.0525
     24 N         143.8599  142.8237  158.3022 N.3     1  UNL1       -0.3221
     25 C         142.3233  143.7173  160.1970 C.3     1  UNL1        0.0356
     26 C         142.9118  143.0616  161.4110 C.3     1  UNL1        0.0923
     27 H         143.9693  142.9017  157.2911 H       1  UNL1        0.1188
     28 H         143.6923  141.8490  158.5518 H       1  UNL1        0.1188
     29 C         142.3353  140.5074  170.4010 C.2     1  UNL1        0.0775
     30 O         143.4197  139.5211  170.7193 O.co2   1  UNL1       -0.5444
     31 O         141.4917  141.0762  171.5031 O.co2   1  UNL1       -0.5444
@<TRIPOS>UNITY_ATOM_ATTR
30 1
charge -1
@<TRIPOS>BOND
     1     2     1    1
     2     2     3    1
     3     3     4    1
     4     4     5    1
     5     5     6   ar
     6     6    17    1
     7    17    18    1
     8    19    18    1
     9    19    20    1
    10    20    21    1
    11    21    22    1
    12    22    23    1
    13    23    24    1
    14    23    25    1
    15    25    26    1
    16     6     7   ar
    17     7     8    1
    18     7     9   ar
    19     9    10   ar
    20    10    11   ar
    21    11    12   ar
    22    12    29    1
    23    29    30   ar
    24    29    31   ar
    25    12    13   ar
    26    13    14    2
    27    13    15   ar
    28    15    16   ar
    29    15     2    1
    30    16     5   ar
    31    26    17    1
    32    16    10   ar
    33    25    19    1
    34    24    27    1
    35    24    28    1
@<TRIPOS>MOLECULE
*****
 31 35 0 0 0
SMALL
GASTEIGER

@<TRIPOS>ATOM
      1 C         144.3299  141.4850  160.4689 C.3     1  UNL1        0.0285
      2 C         143.4537  141.9256  161.6039 C.3     1  UNL1        0.1321
      3 C         143.5510  141.2421  162.9356 C.3     1  UNL1        0.2279
      4 O         142.6749  141.6827  164.0706 O.3     1  UNL1       -0.4707
      5 C         141.7014  142.8068  163.8739 C.ar    1  UNL1        0.1697
      6 C         140.8252  143.2474  165.0089 C.ar    1  UNL1        0.1115
      7 C         139.8518  144.3715  164.8122 C.ar    1  UNL1        0.1564
      8 F         138.9756  144.8121  165.9472 F       1  UNL1       -0.2028
      9 C         139.7544  145.0551  163.4805 C.ar    1  UNL1        0.0326
     10 C         140.6306  144.6145  162.3455 C.ar    1  UNL1        0.0214
     11 C         140.5333  145.2980  161.0139 C.ar    1  UNL1        0.0075
     12 C         141.4095  144.8573  159.8789 C.ar    1  UNL1        0.0702
     13 C         142.3829  143.7332  160.0756 C.ar    1  UNL1        0.2620
     14 O         143.2591  143.2926  158.9406 O.2     1  UNL1       -0.2669
     15 N         142.4803  143.0497  161.4073 N.ar    1  UNL1       -0.2909
     16 C         141.6041  143.4903  162.5423 C.ar    1  UNL1        0.0980
     17 N         140.9225  142.5639  166.3405 N.pl3   1  UNL1       -0.3033
     18 C         139.8918  141.6556  166.9428 C.3     1  UNL1        0.0910
     19 C         140.3999  141.1990  168.2783 C.3     1  UNL1        0.0227
     20 C         139.8119  140.2941  169.3200 C.3     1  UNL1        0.0018
     21 C         140.5685  140.0152  170.5848 C.3     1  UNL1        0.0014
     22 C         141.9132  140.6413  170.8079 C.3     1  UNL1        0.0155
     23 C         142.5013  141.5463  169.7662 C.3     1  UNL1        0.0525
     24 N         143.8460  142.1724  169.9893 N.3     1  UNL1       -0.3221
     25 C         141.7447  141.8252  168.5014 C.3     1  UNL1        0.0356
     26 C         142.0676  142.6687  167.3038 C.3     1  UNL1        0.0923
     27 H         144.2131  141.8761  170.8936 H       1  UNL1        0.1188
     28 H         143.7545  143.1882  169.9758 H       1  UNL1        0.1188
     29 C         141.3121  145.5409  158.5472 C.2     1  UNL1        0.0775
     30 O         140.0159  145.5319  157.7925 O.co2   1  UNL1       -0.5444
     31 O         142.5111  146.2335  157.9703 O.co2   1  UNL1       -0.5444
@<TRIPOS>UNITY_ATOM_ATTR
30 1
charge -1
@<TRIPOS>BOND
     1     2     1    1
     2     2     3    1
     3     3     4    1
     4     4     5    1
     5     5     6   ar
     6     6    17    1
     7    17    18    1
     8    19    18    1
     9    19    20    1
    10    20    21    1
    11    21    22    1
    12    22    23    1
    13    23    24    1
    14    23    25    1
    15    25    26    1
    16     6     7   ar
    17     7     8    1
    18     7     9   ar
    19     9    10   ar
    20    10    11   ar
    21    11    12   ar
    22    12    29    1
    23    29    30   ar
    24    29    31   ar
    25    12    13   ar
    26    13    14    2
    27    13    15   ar
    28    15    16   ar
    29    15     2    1
    30    16     5   ar
    31    26    17    1
    32    16    10   ar
    33    25    19    1
    34    24    27    1
    35    24    28    1
@<TRIPOS>MOLECULE
*****
 31 35 0 0 0
SMALL
GASTEIGER

@<TRIPOS>ATOM
      1 C         137.8007  138.8555  161.3536 C.3     1  UNL1        0.0285
      2 C         139.0337  139.1192  162.1662 C.3     1  UNL1        0.1321
      3 C         138.9133  139.4705  163.6194 C.3     1  UNL1        0.2279
      4 O         140.1463  139.7342  164.4319 O.3     1  UNL1       -0.4707
      5 C         141.4997  139.6465  163.7912 C.ar    1  UNL1        0.1697
      6 C         142.7327  139.9102  164.6037 C.ar    1  UNL1        0.1115
      7 C         144.0861  139.8225  163.9630 C.ar    1  UNL1        0.1564
      8 F         145.3191  140.0862  164.7755 F       1  UNL1       -0.2028
      9 C         144.2065  139.4712  162.5096 C.ar    1  UNL1        0.0326
     10 C         142.9735  139.2075  161.6971 C.ar    1  UNL1        0.0214
     11 C         143.0939  138.8562  160.2438 C.ar    1  UNL1        0.0075
     12 C         141.8609  138.5925  159.4313 C.ar    1  UNL1        0.0702
     13 C         140.5075  138.6802  160.0721 C.ar    1  UNL1        0.2620
     14 O         139.2745  138.4165  159.2596 O.2     1  UNL1       -0.2669
     15 N         140.3871  139.0315  161.5254 N.ar    1  UNL1       -0.2909
     16 C         141.6201  139.2952  162.3379 C.ar    1  UNL1        0.0980
     17 N         142.6123  140.2615  166.0570 N.pl3   1  UNL1       -0.3033
     18 C         142.3030  141.6199  166.6130 C.3     1  UNL1        0.0910
     19 C         142.2796  141.5141  168.1092 C.3     1  UNL1        0.0227
     20 C         142.0279  142.5302  169.1834 C.3     1  UNL1        0.0018
     21 C         142.0711  142.1225  170.6264 C.3     1  UNL1        0.0014
     22 C         142.3659  140.6988  170.9950 C.3     1  UNL1        0.0155
     23 C         142.6176  139.6826  169.9207 C.3     1  UNL1        0.0525
     24 N         142.9125  138.2588  170.2893 N.3     1  UNL1       -0.3221
     25 C         142.5744  140.0902  168.4778 C.3     1  UNL1        0.0356
     26 C         142.7801  139.3161  167.2095 C.3     1  UNL1        0.0923
     27 H         142.9021  138.1613  171.3046 H       1  UNL1        0.1188
     28 H         143.8317  137.9985  169.9321 H       1  UNL1        0.1188
     29 C         141.9813  138.2412  157.9780 C.2     1  UNL1        0.0775
     30 O         142.4398  136.8716  157.5730 O.co2   1  UNL1       -0.5444
     31 O         141.6433  139.2594  156.9297 O.co2   1  UNL1       -0.5444
@<TRIPOS>UNITY_ATOM_ATTR
30 1
charge -1
@<TRIPOS>BOND
     1     2     1    1
     2     2     3    1
     3     3     4    1
     4     4     5    1
     5     5     6   ar
     6     6    17    1
     7    17    18    1
     8    19    18    1
     9    19    20    1
    10    20    21    1
    11    21    22    1
    12    22    23    1
    13    23    24    1
    14    23    25    1
    15    25    26    1
    16     6     7   ar
    17     7     8    1
    18     7     9   ar
    19     9    10   ar
    20    10    11   ar
    21    11    12   ar
    22    12    29    1
    23    29    30   ar
    24    29    31   ar
    25    12    13   ar
    26    13    14    2
    27    13    15   ar
    28    15    16   ar
    29    15     2    1
    30    16     5   ar
    31    26    17    1
    32    16    10   ar
    33    25    19    1
    34    24    27    1
    35    24    28    1
@<TRIPOS>MOLECULE
*****
 31 35 0 0 0
SMALL
GASTEIGER

@<TRIPOS>ATOM
      1 C         143.7980  138.5815  165.6724 C.3     1  UNL1        0.0285
      2 C         142.9607  139.7266  165.1848 C.3     1  UNL1        0.1321
      3 C         142.9510  140.0815  163.7275 C.3     1  UNL1        0.2279
      4 O         142.1137  141.2266  163.2400 O.3     1  UNL1       -0.4707
      5 C         141.2860  142.0167  164.2098 C.ar    1  UNL1        0.1697
      6 C         140.4487  143.1618  163.7223 C.ar    1  UNL1        0.1115
      7 C         139.6210  143.9519  164.6921 C.ar    1  UNL1        0.1564
      8 F         138.7837  145.0970  164.2045 F       1  UNL1       -0.2028
      9 C         139.6307  143.5970  166.1495 C.ar    1  UNL1        0.0326
     10 C         140.4680  142.4520  166.6370 C.ar    1  UNL1        0.0214
     11 C         140.4777  142.0971  168.0944 C.ar    1  UNL1        0.0075
     12 C         141.3150  140.9520  168.5819 C.ar    1  UNL1        0.0702
     13 C         142.1427  140.1618  167.6121 C.ar    1  UNL1        0.2620
     14 O         142.9800  139.0168  168.0996 O.2     1  UNL1       -0.2669
     15 N         142.1330  140.5167  166.1547 N.ar    1  UNL1       -0.2909
     16 C         141.2957  141.6618  165.6671 C.ar    1  UNL1        0.0980
     17 N         140.4390  143.5167  162.2649 N.pl3   1  UNL1       -0.3033
     18 C         141.3266  144.5247  161.5970 C.3     1  UNL1        0.0910
     19 C         140.9762  144.5569  160.1388 C.3     1  UNL1        0.0227
     20 C         141.5198  145.3583  158.9933 C.3     1  UNL1        0.0018
     21 C         140.9593  145.1716  157.6145 C.3     1  UNL1        0.0014
     22 C         139.8551  144.1835  157.3813 C.3     1  UNL1        0.0155
     23 C         139.3114  143.3821  158.5268 C.3     1  UNL1        0.0525
     24 N         138.2072  142.3940  158.2935 N.3     1  UNL1       -0.3221
     25 C         139.8719  143.5688  159.9055 C.3     1  UNL1        0.0356
     26 C         139.5399  142.9259  161.2195 C.3     1  UNL1        0.0923
     27 H         137.9507  142.3976  157.3063 H       1  UNL1        0.1188
     28 H         137.3964  142.6511  158.8564 H       1  UNL1        0.1188
     29 C         141.3247  140.5971  170.0393 C.2     1  UNL1        0.0775
     30 O         140.4183  139.5188  170.5547 O.co2   1  UNL1       -0.5444
     31 O         142.2408  141.3206  170.9813 O.co2   1  UNL1       -0.5444
@<TRIPOS>UNITY_ATOM_ATTR
30 1
charge -1
@<TRIPOS>BOND
     1     2     1    1
     2     2     3    1
     3     3     4    1
     4     4     5    1
     5     5     6   ar
     6     6    17    1
     7    17    18    1
     8    19    18    1
     9    19    20    1
    10    20    21    1
    11    21    22    1
    12    22    23    1
    13    23    24    1
    14    23    25    1
    15    25    26    1
    16     6     7   ar
    17     7     8    1
    18     7     9   ar
    19     9    10   ar
    20    10    11   ar
    21    11    12   ar
    22    12    29    1
    23    29    30   ar
    24    29    31   ar
    25    12    13   ar
    26    13    14    2
    27    13    15   ar
    28    15    16   ar
    29    15     2    1
    30    16     5   ar
    31    26    17    1
    32    16    10   ar
    33    25    19    1
    34    24    27    1
    35    24    28    1
