@<TRIPOS>MOLECULE
*****
 31 33 0 0 0
SMALL
GASTEIGER

@<TRIPOS>ATOM
      1 N         143.9633  145.4057  162.8237 N.pl3   1  UNL1       -0.3287
      2 C         142.6422  144.8102  163.2110 C.ar    1  UNL1        0.1959
      3 N         141.3936  145.5735  163.5403 N.ar    1  UNL1       -0.2123
      4 C         140.3175  144.5819  163.8699 C.ar    1  UNL1        0.1183
      5 C         138.8816  144.7542  164.2682 C.ar    1  UNL1        0.0251
      6 C         138.0293  143.5504  164.5408 C.ar    1  UNL1        0.0358
      7 C         138.6128  142.1743  164.4153 C.ar    1  UNL1        0.1304
      8 N         140.0486  142.0019  164.0171 N.ar    1  UNL1       -0.2122
      9 C         140.9010  143.2057  163.7444 C.ar    1  UNL1        0.1651
     10 N         142.3377  143.3469  163.3372 N.ar    1  UNL1       -0.2824
     11 H         144.0652  146.3833  162.7679 H       1  UNL1        0.1451
     12 H         144.7285  144.8189  162.6252 H       1  UNL1        0.1451
     13 N         137.7604  140.9705  164.6880 N.pl3   1  UNL1       -0.3112
     14 H         136.7952  140.9970  164.4958 H       1  UNL1        0.1484
     15 C         138.3786  139.7263  165.2535 C.3     1  UNL1        0.1929
     16 C         138.4788  139.5472  166.7395 C.3     1  UNL1        0.4154
     17 F         138.5789  139.3681  168.2253 F       1  UNL1       -0.1682
     18 F         139.6288  140.5094  166.7779 F       1  UNL1       -0.1682
     19 F         137.3287  138.5851  166.7010 F       1  UNL1       -0.1682
     20 C         143.3009  142.2221  163.0980 C.3     1  UNL1        0.1438
     21 C         144.2036  141.7599  164.2032 C.3     1  UNL1        0.1561
     22 O         145.6925  141.8355  164.0366 O.3     1  UNL1       -0.3780
     23 H         146.1249  141.4998  164.8373 H       1  UNL1        0.2109
     24 C         143.6177  141.2221  165.4750 C.ar    1  UNL1        0.0168
     25 C         143.2650  142.1581  166.5928 C.ar    1  UNL1       -0.0002
     26 C         142.6791  141.6203  167.8646 C.ar    1  UNL1        0.0112
     27 C         142.4458  140.1465  168.0185 C.ar    1  UNL1        0.0585
     28 CL        141.8599  139.6086  169.2903 Cl      1  UNL1       -0.0822
     29 C         142.7985  139.2106  166.9007 C.ar    1  UNL1        0.0225
     30 C         143.3844  139.7484  165.6289 C.ar    1  UNL1        0.0568
     31 CL        143.7371  138.8125  164.5110 Cl      1  UNL1       -0.0825
@<TRIPOS>BOND
     1     1     2    1
     2     2     3   ar
     3     3     4   ar
     4     4     5   ar
     5     5     6   ar
     6     6     7   ar
     7     7    13    1
     8    13    15    1
     9    15    16    1
    10    16    17    1
    11    16    18    1
    12    16    19    1
    13     7     8   ar
    14     8     9   ar
    15     9    10   ar
    16    10    20    1
    17    20    21    1
    18    21    22    1
    19    21    24    1
    20    24    25   ar
    21    25    26   ar
    22    26    27   ar
    23    27    28    1
    24    27    29   ar
    25    29    30   ar
    26    30    31    1
    27    10     2   ar
    28    30    24   ar
    29     9     4   ar
    30     1    11    1
    31     1    12    1
    32    13    14    1
    33    22    23    1
@<TRIPOS>MOLECULE
*****
 31 33 0 0 0
SMALL
GASTEIGER

@<TRIPOS>ATOM
      1 N         138.3757  137.6751  161.6819 N.pl3   1  UNL1       -0.3287
      2 C         139.7013  138.3153  161.9693 C.ar    1  UNL1        0.1959
      3 N         141.0236  137.6108  162.0414 N.ar    1  UNL1       -0.2123
      4 C         142.0770  138.6326  162.3517 C.ar    1  UNL1        0.1183
      5 C         143.5607  138.5190  162.5408 C.ar    1  UNL1        0.0251
      6 C         144.3731  139.7416  162.8495 C.ar    1  UNL1        0.0358
      7 C         143.7019  141.0776  162.9691 C.ar    1  UNL1        0.1304
      8 N         142.2182  141.1912  162.7800 N.ar    1  UNL1       -0.2122
      9 C         141.4058  139.9687  162.4713 C.ar    1  UNL1        0.1651
     10 N         139.9376  139.7726  162.2350 N.ar    1  UNL1       -0.2824
     11 H         138.3221  136.7055  161.5196 H       1  UNL1        0.1451
     12 H         137.5591  138.2244  161.6555 H       1  UNL1        0.1451
     13 N         144.5144  142.3002  163.2778 N.pl3   1  UNL1       -0.3112
     14 H         145.2626  142.2460  163.9154 H       1  UNL1        0.1484
     15 C         144.1870  143.6054  162.6151 C.3     1  UNL1        0.1929
     16 C         143.3402  144.6173  163.3287 C.3     1  UNL1        0.4154
     17 F         142.4935  145.6291  164.0422 F       1  UNL1       -0.1682
     18 F         144.2220  144.5033  164.5367 F       1  UNL1       -0.1682
     19 F         142.4584  144.7313  162.1206 F       1  UNL1       -0.1682
     20 C         138.8895  140.8454  162.2599 C.3     1  UNL1        0.1438
     21 C         137.9958  140.9932  163.4554 C.3     1  UNL1        0.1561
     22 O         136.5605  141.3899  163.2744 O.3     1  UNL1       -0.3780
     23 H         136.1271  141.4399  164.1407 H       1  UNL1        0.2109
     24 C         138.5372  140.7444  164.8320 C.ar    1  UNL1        0.0168
     25 C         138.1554  139.4980  165.5740 C.ar    1  UNL1       -0.0002
     26 C         138.6968  139.2491  166.9506 C.ar    1  UNL1        0.0112
     27 C         139.6199  140.2467  167.5852 C.ar    1  UNL1        0.0585
     28 CL        140.1613  139.9979  168.9618 Cl      1  UNL1       -0.0822
     29 C         140.0016  141.4931  166.8431 C.ar    1  UNL1        0.0225
     30 C         139.4603  141.7420  165.4665 C.ar    1  UNL1        0.0568
     31 CL        139.8420  142.9884  164.7245 Cl      1  UNL1       -0.0825
@<TRIPOS>BOND
     1     1     2    1
     2     2     3   ar
     3     3     4   ar
     4     4     5   ar
     5     5     6   ar
     6     6     7   ar
     7     7    13    1
     8    13    15    1
     9    15    16    1
    10    16    17    1
    11    16    18    1
    12    16    19    1
    13     7     8   ar
    14     8     9   ar
    15     9    10   ar
    16    10    20    1
    17    20    21    1
    18    21    22    1
    19    21    24    1
    20    24    25   ar
    21    25    26   ar
    22    26    27   ar
    23    27    28    1
    24    27    29   ar
    25    29    30   ar
    26    30    31    1
    27    10     2   ar
    28    30    24   ar
    29     9     4   ar
    30     1    11    1
    31     1    12    1
    32    13    14    1
    33    22    23    1
@<TRIPOS>MOLECULE
*****
 31 33 0 0 0
SMALL
GASTEIGER

@<TRIPOS>ATOM
      1 N         137.4667  144.2259  162.4802 N.pl3   1  UNL1       -0.3287
      2 C         137.9670  143.2101  163.4640 C.ar    1  UNL1        0.1959
      3 N         137.4443  141.8143  163.6329 N.ar    1  UNL1       -0.2123
      4 C         138.2320  141.1533  164.7249 C.ar    1  UNL1        0.1183
      5 C         138.1605  139.7799  165.3239 C.ar    1  UNL1        0.0251
      6 C         139.0985  139.3939  166.4288 C.ar    1  UNL1        0.0358
      7 C         140.1081  140.3811  166.9348 C.ar    1  UNL1        0.1304
      8 N         140.1797  141.7545  166.3359 N.ar    1  UNL1       -0.2122
      9 C         139.2416  142.1405  165.2309 C.ar    1  UNL1        0.1651
     10 N         139.0778  143.4117  164.4516 N.ar    1  UNL1       -0.2824
     11 H         136.7287  143.9981  161.8698 H       1  UNL1        0.1451
     12 H         137.8764  145.1205  162.4450 H       1  UNL1        0.1451
     13 N         141.0462  139.9950  168.0399 N.pl3   1  UNL1       -0.3112
     14 H         140.7229  139.9563  168.9690 H       1  UNL1        0.1484
     15 C         142.4767  139.6678  167.7293 C.3     1  UNL1        0.1929
     16 C         142.9362  139.5920  166.3033 C.3     1  UNL1        0.4154
     17 F         143.3957  139.5163  164.8775 F       1  UNL1       -0.1682
     18 F         142.5176  138.1528  166.2448 F       1  UNL1       -0.1682
     19 F         143.3548  141.0312  166.3618 F       1  UNL1       -0.1682
     20 C         139.8834  144.6645  164.6289 C.3     1  UNL1        0.1438
     21 C         141.0094  144.9718  163.6869 C.3     1  UNL1        0.1561
     22 O         140.9069  146.1396  162.7510 O.3     1  UNL1       -0.3780
     23 H         141.7137  146.1966  162.2154 H       1  UNL1        0.2109
     24 C         142.2381  144.1113  163.6805 C.ar    1  UNL1        0.0168
     25 C         143.3653  144.4065  164.6251 C.ar    1  UNL1       -0.0002
     26 C         144.5940  143.5460  164.6188 C.ar    1  UNL1        0.0112
     27 C         144.6954  142.3903  163.6679 C.ar    1  UNL1        0.0585
     28 CL        145.9240  141.5298  163.6615 Cl      1  UNL1       -0.0822
     29 C         143.5681  142.0952  162.7234 C.ar    1  UNL1        0.0225
     30 C         142.3395  142.9556  162.7297 C.ar    1  UNL1        0.0568
     31 CL        141.2122  142.6605  161.7851 Cl      1  UNL1       -0.0825
@<TRIPOS>BOND
     1     1     2    1
     2     2     3   ar
     3     3     4   ar
     4     4     5   ar
     5     5     6   ar
     6     6     7   ar
     7     7    13    1
     8    13    15    1
     9    15    16    1
    10    16    17    1
    11    16    18    1
    12    16    19    1
    13     7     8   ar
    14     8     9   ar
    15     9    10   ar
    16    10    20    1
    17    20    21    1
    18    21    22    1
    19    21    24    1
    20    24    25   ar
    21    25    26   ar
    22    26    27   ar
    23    27    28    1
    24    27    29   ar
    25    29    30   ar
    26    30    31    1
    27    10     2   ar
    28    30    24   ar
    29     9     4   ar
    30     1    11    1
    31     1    12    1
    32    13    14    1
    33    22    23    1
@<TRIPOS>MOLECULE
*****
 31 33 0 0 0
SMALL
GASTEIGER

@<TRIPOS>ATOM
      1 N         146.2586  142.0143  163.0830 N.pl3   1  UNL1       -0.3287
      2 C         145.0597  141.2165  163.5027 C.ar    1  UNL1        0.1959
      3 N         145.0672  140.0301  164.4204 N.ar    1  UNL1       -0.2123
      4 C         143.6549  139.5454  164.5632 C.ar    1  UNL1        0.1183
      5 C         143.0568  138.4111  165.3413 C.ar    1  UNL1        0.0251
      6 C         141.5783  138.1637  165.2899 C.ar    1  UNL1        0.0358
      7 C         140.6978  139.0506  164.4604 C.ar    1  UNL1        0.1304
      8 N         141.2959  140.1849  163.6822 N.ar    1  UNL1       -0.2122
      9 C         142.7744  140.4323  163.7336 C.ar    1  UNL1        0.1651
     10 N         143.6427  141.4651  163.0782 N.ar    1  UNL1       -0.2824
     11 H         147.1526  141.7720  163.4169 H       1  UNL1        0.1451
     12 H         146.1516  142.7802  162.4738 H       1  UNL1        0.1451
     13 N         139.2192  138.8031  164.4090 N.pl3   1  UNL1       -0.3112
     14 H         138.8006  138.4943  163.5732 H       1  UNL1        0.1484
     15 C         138.3786  139.0262  165.6310 C.3     1  UNL1        0.1929
     16 C         137.8808  137.8537  166.4232 C.3     1  UNL1        0.4154
     17 F         137.3830  136.6812  167.2154 F       1  UNL1       -0.1682
     18 F         138.4413  136.9192  165.3925 F       1  UNL1       -0.1682
     19 F         137.3202  138.7881  167.4540 F       1  UNL1       -0.1682
     20 C         143.1757  142.5551  162.1595 C.3     1  UNL1        0.1438
     21 C         142.8213  143.9029  162.7142 C.3     1  UNL1        0.1561
     22 O         143.7943  145.0391  162.6033 O.3     1  UNL1       -0.3780
     23 H         143.4120  145.8330  163.0089 H       1  UNL1        0.2109
     24 C         141.4938  144.1146  163.3798 C.ar    1  UNL1        0.0168
     25 C         141.2672  143.6167  164.7765 C.ar    1  UNL1       -0.0002
     26 C         139.9398  143.8284  165.4421 C.ar    1  UNL1        0.0112
     27 C         138.8389  144.5380  164.7110 C.ar    1  UNL1        0.0585
     28 CL        137.5114  144.7498  165.3766 Cl      1  UNL1       -0.0822
     29 C         139.0655  145.0359  163.3144 C.ar    1  UNL1        0.0225
     30 C         140.3930  144.8242  162.6488 C.ar    1  UNL1        0.0568
     31 CL        140.6195  145.3221  161.2521 Cl      1  UNL1       -0.0825
@<TRIPOS>BOND
     1     1     2    1
     2     2     3   ar
     3     3     4   ar
     4     4     5   ar
     5     5     6   ar
     6     6     7   ar
     7     7    13    1
     8    13    15    1
     9    15    16    1
    10    16    17    1
    11    16    18    1
    12    16    19    1
    13     7     8   ar
    14     8     9   ar
    15     9    10   ar
    16    10    20    1
    17    20    21    1
    18    21    22    1
    19    21    24    1
    20    24    25   ar
    21    25    26   ar
    22    26    27   ar
    23    27    28    1
    24    27    29   ar
    25    29    30   ar
    26    30    31    1
    27    10     2   ar
    28    30    24   ar
    29     9     4   ar
    30     1    11    1
    31     1    12    1
    32    13    14    1
    33    22    23    1
@<TRIPOS>MOLECULE
*****
 31 33 0 0 0
SMALL
GASTEIGER

@<TRIPOS>ATOM
      1 N         137.6917  143.5828  161.8420 N.pl3   1  UNL1       -0.3287
      2 C         138.1083  142.8002  163.0520 C.ar    1  UNL1        0.1959
      3 N         137.7105  141.3892  163.3694 N.ar    1  UNL1       -0.2123
      4 C         138.3522  141.0082  164.6706 C.ar    1  UNL1        0.1183
      5 C         138.3158  139.7427  165.4750 C.ar    1  UNL1        0.0251
      6 C         139.0737  139.6528  166.7663 C.ar    1  UNL1        0.0358
      7 C         139.8680  140.8284  167.2531 C.ar    1  UNL1        0.1304
      8 N         139.9044  142.0939  166.4487 N.ar    1  UNL1       -0.2122
      9 C         139.1465  142.1838  165.1574 C.ar    1  UNL1        0.1651
     10 N         138.9957  143.2913  164.1571 N.ar    1  UNL1       -0.2824
     11 H         137.1035  143.1714  161.1682 H       1  UNL1        0.1451
     12 H         138.0065  144.5078  161.7216 H       1  UNL1        0.1451
     13 N         140.6260  140.7385  168.5445 N.pl3   1  UNL1       -0.3112
     14 H         140.8144  139.8588  168.9444 H       1  UNL1        0.1484
     15 C         141.0967  141.9887  169.2264 C.3     1  UNL1        0.1929
     16 C         140.1858  142.7170  170.1699 C.3     1  UNL1        0.4154
     17 F         139.2750  143.4451  171.1133 F       1  UNL1       -0.1682
     18 F         140.1398  143.8820  169.2263 F       1  UNL1       -0.1682
     19 F         140.2318  141.5519  171.1135 F       1  UNL1       -0.1682
     20 C         139.6225  144.6512  164.2462 C.3     1  UNL1        0.1438
     21 C         140.7498  145.0191  163.3278 C.3     1  UNL1        0.1561
     22 O         140.6151  146.1977  162.4096 O.3     1  UNL1       -0.3780
     23 H         141.4272  146.2959  161.8883 H       1  UNL1        0.2109
     24 C         142.0120  144.2087  163.3276 C.ar    1  UNL1        0.0168
     25 C         143.0449  144.4288  164.3928 C.ar    1  UNL1       -0.0002
     26 C         144.3071  143.6183  164.3925 C.ar    1  UNL1        0.0112
     27 C         144.5365  142.5878  163.3270 C.ar    1  UNL1        0.0585
     28 CL        145.7987  141.7773  163.3266 Cl      1  UNL1       -0.0822
     29 C         143.5036  142.3677  162.2617 C.ar    1  UNL1        0.0225
     30 C         142.2414  143.1782  162.2620 C.ar    1  UNL1        0.0568
     31 CL        141.2086  142.9581  161.1968 Cl      1  UNL1       -0.0825
@<TRIPOS>BOND
     1     1     2    1
     2     2     3   ar
     3     3     4   ar
     4     4     5   ar
     5     5     6   ar
     6     6     7   ar
     7     7    13    1
     8    13    15    1
     9    15    16    1
    10    16    17    1
    11    16    18    1
    12    16    19    1
    13     7     8   ar
    14     8     9   ar
    15     9    10   ar
    16    10    20    1
    17    20    21    1
    18    21    22    1
    19    21    24    1
    20    24    25   ar
    21    25    26   ar
    22    26    27   ar
    23    27    28    1
    24    27    29   ar
    25    29    30   ar
    26    30    31    1
    27    10     2   ar
    28    30    24   ar
    29     9     4   ar
    30     1    11    1
    31     1    12    1
    32    13    14    1
    33    22    23    1
@<TRIPOS>MOLECULE
*****
 31 33 0 0 0
SMALL
GASTEIGER

@<TRIPOS>ATOM
      1 N         138.7270  137.6075  162.4152 N.pl3   1  UNL1       -0.3287
      2 C         139.6471  138.0391  163.5185 C.ar    1  UNL1        0.1959
      3 N         141.0274  137.5100  163.7731 N.ar    1  UNL1       -0.2123
      4 C         141.5818  138.2194  164.9728 C.ar    1  UNL1        0.1183
      5 C         142.8974  138.1094  165.6848 C.ar    1  UNL1        0.0251
      6 C         143.1754  138.9669  166.8836 C.ar    1  UNL1        0.0358
      7 C         142.1378  139.9345  167.3705 C.ar    1  UNL1        0.1304
      8 N         140.8221  140.0445  166.6585 N.ar    1  UNL1       -0.2122
      9 C         140.5441  139.1870  165.4597 C.ar    1  UNL1        0.1651
     10 N         139.3484  139.0755  164.5609 N.ar    1  UNL1       -0.2824
     11 H         139.0148  136.9160  161.7764 H       1  UNL1        0.1451
     12 H         137.8352  138.0159  162.3299 H       1  UNL1        0.1451
     13 N         142.4158  140.7920  168.5695 N.pl3   1  UNL1       -0.3112
     14 H         142.6007  140.3740  169.4414 H       1  UNL1        0.1484
     15 C         142.4120  142.2864  168.4398 C.3     1  UNL1        0.1929
     16 C         141.3677  143.0980  169.1475 C.3     1  UNL1        0.4154
     17 F         140.3234  143.9096  169.8551 F       1  UNL1       -0.1682
     18 F         140.4305  142.8984  167.9934 F       1  UNL1       -0.1682
     19 F         142.3048  143.2976  170.3015 F       1  UNL1       -0.1682
     20 C         138.0772  139.8624  164.6830 C.3     1  UNL1        0.1438
     21 C         137.8734  141.0924  163.8491 C.3     1  UNL1        0.1561
     22 O         136.6354  141.2358  163.0142 O.3     1  UNL1       -0.3780
     23 H         136.6608  142.0822  162.5410 H       1  UNL1        0.2109
     24 C         138.9074  142.1790  163.8499 C.ar    1  UNL1        0.0168
     25 C         138.8819  143.2378  164.9121 C.ar    1  UNL1       -0.0002
     26 C         139.9160  144.3245  164.9129 C.ar    1  UNL1        0.0112
     27 C         140.9755  144.3523  163.8515 C.ar    1  UNL1        0.0585
     28 CL        142.0096  145.4389  163.8522 Cl      1  UNL1       -0.0822
     29 C         141.0011  143.2935  162.7893 C.ar    1  UNL1        0.0225
     30 C         139.9670  142.2068  162.7885 C.ar    1  UNL1        0.0568
     31 CL        139.9925  141.1480  161.7264 Cl      1  UNL1       -0.0825
@<TRIPOS>BOND
     1     1     2    1
     2     2     3   ar
     3     3     4   ar
     4     4     5   ar
     5     5     6   ar
     6     6     7   ar
     7     7    13    1
     8    13    15    1
     9    15    16    1
    10    16    17    1
    11    16    18    1
    12    16    19    1
    13     7     8   ar
    14     8     9   ar
    15     9    10   ar
    16    10    20    1
    17    20    21    1
    18    21    22    1
    19    21    24    1
    20    24    25   ar
    21    25    26   ar
    22    26    27   ar
    23    27    28    1
    24    27    29   ar
    25    29    30   ar
    26    30    31    1
    27    10     2   ar
    28    30    24   ar
    29     9     4   ar
    30     1    11    1
    31     1    12    1
    32    13    14    1
    33    22    23    1
@<TRIPOS>MOLECULE
*****
 31 33 0 0 0
SMALL
GASTEIGER

@<TRIPOS>ATOM
      1 N         139.8896  146.7028  161.8089 N.pl3   1  UNL1       -0.3287
      2 C         139.5585  145.4216  162.5152 C.ar    1  UNL1        0.1959
      3 N         138.3052  144.6164  162.3395 N.ar    1  UNL1       -0.2123
      4 C         138.3946  143.4177  163.2370 C.ar    1  UNL1        0.1183
      5 C         137.4536  142.2760  163.4835 C.ar    1  UNL1        0.0251
      6 C         137.8211  141.1987  164.4603 C.ar    1  UNL1        0.0358
      7 C         139.1298  141.2631  165.1906 C.ar    1  UNL1        0.1304
      8 N         140.0708  142.4048  164.9441 N.ar    1  UNL1       -0.2122
      9 C         139.7033  143.4821  163.9673 C.ar    1  UNL1        0.1651
     10 N         140.4225  144.7206  163.5212 N.ar    1  UNL1       -0.2824
     11 H         139.2545  147.0866  161.1620 H       1  UNL1        0.1451
     12 H         140.7421  147.1598  161.9922 H       1  UNL1        0.1451
     13 N         139.4973  140.1857  166.1675 N.pl3   1  UNL1       -0.3112
     14 H         139.9190  140.4218  167.0251 H       1  UNL1        0.1484
     15 C         139.2223  138.7485  165.8375 C.3     1  UNL1        0.1929
     16 C         138.0941  138.0266  166.5129 C.3     1  UNL1        0.4154
     17 F         136.9659  137.3047  167.1882 F       1  UNL1       -0.1682
     18 F         138.2630  136.8761  165.5654 F       1  UNL1       -0.1682
     19 F         137.9251  139.1770  167.4604 F       1  UNL1       -0.1682
     20 C         141.7694  145.1777  163.9976 C.3     1  UNL1        0.1438
     21 C         143.0131  144.6700  163.3302 C.3     1  UNL1        0.1561
     22 O         143.9296  145.6256  162.6253 O.3     1  UNL1       -0.3780
     23 H         144.6801  145.1378  162.2516 H       1  UNL1        0.2109
     24 C         143.3404  143.2066  163.3677 C.ar    1  UNL1        0.0168
     25 C         142.8371  142.2975  162.2859 C.ar    1  UNL1       -0.0002
     26 C         143.1644  140.8341  162.3234 C.ar    1  UNL1        0.0112
     27 C         143.9951  140.2798  163.4427 C.ar    1  UNL1        0.0585
     28 CL        144.3224  138.8164  163.4802 Cl      1  UNL1       -0.0822
     29 C         144.4984  141.1889  164.5244 C.ar    1  UNL1        0.0225
     30 C         144.1711  142.6523  164.4869 C.ar    1  UNL1        0.0568
     31 CL        144.6744  143.5614  165.5687 Cl      1  UNL1       -0.0825
@<TRIPOS>BOND
     1     1     2    1
     2     2     3   ar
     3     3     4   ar
     4     4     5   ar
     5     5     6   ar
     6     6     7   ar
     7     7    13    1
     8    13    15    1
     9    15    16    1
    10    16    17    1
    11    16    18    1
    12    16    19    1
    13     7     8   ar
    14     8     9   ar
    15     9    10   ar
    16    10    20    1
    17    20    21    1
    18    21    22    1
    19    21    24    1
    20    24    25   ar
    21    25    26   ar
    22    26    27   ar
    23    27    28    1
    24    27    29   ar
    25    29    30   ar
    26    30    31    1
    27    10     2   ar
    28    30    24   ar
    29     9     4   ar
    30     1    11    1
    31     1    12    1
    32    13    14    1
    33    22    23    1
@<TRIPOS>MOLECULE
*****
 31 33 0 0 0
SMALL
GASTEIGER

@<TRIPOS>ATOM
      1 N         145.0918  139.4709  163.9003 N.pl3   1  UNL1       -0.3287
      2 C         144.3668  140.7838  163.8759 C.ar    1  UNL1        0.1959
      3 N         144.9853  142.1363  164.0712 N.ar    1  UNL1       -0.2123
      4 C         143.8967  143.1631  163.9678 C.ar    1  UNL1        0.1183
      5 C         143.9145  144.6591  164.0762 C.ar    1  UNL1        0.0251
      6 C         142.6409  145.4371  163.9255 C.ar    1  UNL1        0.0358
      7 C         141.3497  144.7192  163.6663 C.ar    1  UNL1        0.1304
      8 N         141.3319  143.2232  163.5579 N.ar    1  UNL1       -0.2122
      9 C         142.6054  142.4452  163.7086 C.ar    1  UNL1        0.1651
     10 N         142.8960  140.9747  163.6518 N.ar    1  UNL1       -0.2824
     11 H         146.0637  139.4481  164.0557 H       1  UNL1        0.1451
     12 H         144.5958  138.6319  163.7610 H       1  UNL1        0.1451
     13 N         140.0761  145.4973  163.5155 N.pl3   1  UNL1       -0.3112
     14 H         140.0518  146.4525  163.7526 H       1  UNL1        0.1484
     15 C         138.8395  144.8200  163.0035 C.3     1  UNL1        0.1929
     16 C         137.9864  144.0119  163.9358 C.3     1  UNL1        0.4154
     17 F         137.1332  143.2037  164.8680 F       1  UNL1       -0.1682
     18 F         138.3411  144.9367  165.0622 F       1  UNL1       -0.1682
     19 F         137.6316  143.0870  162.8094 F       1  UNL1       -0.1682
     20 C         141.8919  139.8862  163.4129 C.3     1  UNL1        0.1438
     21 C         141.6367  138.8555  164.4722 C.3     1  UNL1        0.1561
     22 O         142.0276  137.4263  164.2378 O.3     1  UNL1       -0.3780
     23 H         141.7946  136.8956  165.0156 H       1  UNL1        0.2109
     24 C         140.9907  139.2536  165.7661 C.ar    1  UNL1        0.0168
     25 C         141.8298  139.7795  166.8927 C.ar    1  UNL1       -0.0002
     26 C         141.1838  140.1777  168.1866 C.ar    1  UNL1        0.0112
     27 C         139.6986  140.0500  168.3539 C.ar    1  UNL1        0.0585
     28 CL        139.0525  140.4481  169.6477 Cl      1  UNL1       -0.0822
     29 C         138.8595  139.5241  167.2272 C.ar    1  UNL1        0.0225
     30 C         139.5055  139.1259  165.9334 C.ar    1  UNL1        0.0568
     31 CL        138.6664  138.6000  164.8067 Cl      1  UNL1       -0.0825
@<TRIPOS>BOND
     1     1     2    1
     2     2     3   ar
     3     3     4   ar
     4     4     5   ar
     5     5     6   ar
     6     6     7   ar
     7     7    13    1
     8    13    15    1
     9    15    16    1
    10    16    17    1
    11    16    18    1
    12    16    19    1
    13     7     8   ar
    14     8     9   ar
    15     9    10   ar
    16    10    20    1
    17    20    21    1
    18    21    22    1
    19    21    24    1
    20    24    25   ar
    21    25    26   ar
    22    26    27   ar
    23    27    28    1
    24    27    29   ar
    25    29    30   ar
    26    30    31    1
    27    10     2   ar
    28    30    24   ar
    29     9     4   ar
    30     1    11    1
    31     1    12    1
    32    13    14    1
    33    22    23    1
@<TRIPOS>MOLECULE
*****
 31 33 0 0 0
SMALL
GASTEIGER

@<TRIPOS>ATOM
      1 N         141.3579  145.5090  160.4517 N.pl3   1  UNL1       -0.3287
      2 C         141.8725  144.1900  160.9469 C.ar    1  UNL1        0.1959
      3 N         143.3114  143.8365  161.1809 N.ar    1  UNL1       -0.2123
      4 C         143.3667  142.4208  161.6737 C.ar    1  UNL1        0.1183
      5 C         144.5147  141.5393  162.0673 C.ar    1  UNL1        0.0251
      6 C         144.2580  140.1362  162.5314 C.ar    1  UNL1        0.0358
      7 C         142.8534  139.6147  162.6020 C.ar    1  UNL1        0.1304
      8 N         141.7054  140.4963  162.2084 N.ar    1  UNL1       -0.2122
      9 C         141.9621  141.8993  161.7443 C.ar    1  UNL1        0.1651
     10 N         141.0386  142.9927  161.2951 N.ar    1  UNL1       -0.2824
     11 H         141.9874  146.2383  160.2491 H       1  UNL1        0.1451
     12 H         140.3906  145.6455  160.3293 H       1  UNL1        0.1451
     13 N         142.5967  138.2116  163.0661 N.pl3   1  UNL1       -0.3112
     14 H         143.2976  137.7169  163.5492 H       1  UNL1        0.1484
     15 C         141.2723  137.5621  162.7942 C.3     1  UNL1        0.1929
     16 C         140.2953  137.3536  163.9133 C.3     1  UNL1        0.4154
     17 F         139.3184  137.1451  165.0322 F       1  UNL1       -0.1682
     18 F         141.4092  136.8753  164.7967 F       1  UNL1       -0.1682
     19 F         139.1814  137.8318  163.0299 F       1  UNL1       -0.1682
     20 C         139.5437  142.9043  161.2091 C.3     1  UNL1        0.1438
     21 C         138.7047  143.1888  162.4195 C.3     1  UNL1        0.1561
     22 O         137.7035  144.3056  162.3925 O.3     1  UNL1       -0.3780
     23 H         137.2495  144.3535  163.2483 H       1  UNL1        0.2109
     24 C         138.8667  142.3567  163.6569 C.ar    1  UNL1        0.0168
     25 C         138.0969  141.0781  163.8071 C.ar    1  UNL1       -0.0002
     26 C         138.2590  140.2460  165.0445 C.ar    1  UNL1        0.0112
     27 C         139.1908  140.6924  166.1319 C.ar    1  UNL1        0.0585
     28 CL        139.3529  139.8603  167.3694 Cl      1  UNL1       -0.0822
     29 C         139.9606  141.9710  165.9817 C.ar    1  UNL1        0.0225
     30 C         139.7986  142.8032  164.7443 C.ar    1  UNL1        0.0568
     31 CL        140.5684  144.0818  164.5942 Cl      1  UNL1       -0.0825
@<TRIPOS>BOND
     1     1     2    1
     2     2     3   ar
     3     3     4   ar
     4     4     5   ar
     5     5     6   ar
     6     6     7   ar
     7     7    13    1
     8    13    15    1
     9    15    16    1
    10    16    17    1
    11    16    18    1
    12    16    19    1
    13     7     8   ar
    14     8     9   ar
    15     9    10   ar
    16    10    20    1
    17    20    21    1
    18    21    22    1
    19    21    24    1
    20    24    25   ar
    21    25    26   ar
    22    26    27   ar
    23    27    28    1
    24    27    29   ar
    25    29    30   ar
    26    30    31    1
    27    10     2   ar
    28    30    24   ar
    29     9     4   ar
    30     1    11    1
    31     1    12    1
    32    13    14    1
    33    22    23    1
