@<TRIPOS>MOLECULE
*****
 30 32 0 0 0
SMALL
GASTEIGER

@<TRIPOS>ATOM
      1 C         141.9829  140.5105  168.6527 C.3     1  UNL1        0.0926
      2 C         142.5026  140.1807  170.0206 C.3     1  UNL1        0.0887
      3 N         143.5268  141.2129  170.3887 N.3     1  UNL1       -0.2958
      4 C         143.6401  142.1807  169.2482 C.3     1  UNL1        0.0747
      5 C         142.6859  141.7465  168.1753 C.3     1  UNL1        0.0573
      6 H         144.4278  140.7636  170.5522 H       1  UNL1        0.1233
      7 C         142.4722  142.4287  166.8567 C.ar    1  UNL1       -0.0195
      8 C         143.6486  142.7806  165.9950 C.ar    1  UNL1       -0.0042
      9 C         143.4350  143.4628  164.6764 C.ar    1  UNL1        0.0035
     10 C         142.0450  143.7931  164.2192 C.ar    1  UNL1        0.0714
     11 C         140.8687  143.4412  165.0808 C.ar    1  UNL1        0.0035
     12 C         141.0823  142.7590  166.3995 C.ar    1  UNL1       -0.0042
     13 C         141.8313  144.4753  162.9005 C.3     1  UNL1        0.4186
     14 F         141.6177  145.1574  161.5818 F       1  UNL1       -0.1659
     15 F         141.9576  145.8111  163.5711 F       1  UNL1       -0.1659
     16 F         141.7051  143.1394  162.2299 F       1  UNL1       -0.1659
     17 C         139.4931  139.8857  168.2517 C.2     1  UNL1        0.2269
     18 O         139.0835  140.8028  169.3657 O.2     1  UNL1       -0.2747
     19 N         140.9427  139.7395  167.8952 N.am    1  UNL1       -0.3040
     20 H         141.2116  139.1375  167.1640 H       1  UNL1        0.1494
     21 C         138.4531  139.1147  167.4942 C.3     1  UNL1        0.1113
     22 C         138.5278  139.0569  162.9951 C.ar    1  UNL1        0.0479
     23 C         138.8291  137.8061  163.7663 C.ar    1  UNL1        0.0142
     24 C         138.8042  137.8254  165.2660 C.ar    1  UNL1       -0.0025
     25 C         138.4780  139.0954  165.9945 C.ar    1  UNL1       -0.0130
     26 C         138.1766  140.3462  165.2232 C.ar    1  UNL1       -0.0025
     27 C         138.2015  140.3269  163.7236 C.ar    1  UNL1        0.0142
     28 C         137.5244  139.8050  160.7184 C.3     1  UNL1        0.1122
     29 N         138.5526  139.0377  161.4955 N.pl3   1  UNL1       -0.3041
     30 C         139.6058  138.2511  160.7728 C.3     1  UNL1        0.1122
@<TRIPOS>BOND
     1    28    29    1
     2    29    30    1
     3    29    22    1
     4    22    23   ar
     5    23    24   ar
     6    24    25   ar
     7    25    21    1
     8    21    17    1
     9    17    18    2
    10    17    19   am
    11     1    19    1
    12     1     2    1
    13     2     3    1
    14     3     4    1
    15     4     5    1
    16     5     7    1
    17     7     8   ar
    18     8     9   ar
    19     9    10   ar
    20    10    13    1
    21    13    14    1
    22    13    15    1
    23    13    16    1
    24    10    11   ar
    25    11    12   ar
    26    25    26   ar
    27    26    27   ar
    28    27    22   ar
    29     5     1    1
    30    12     7   ar
    31    19    20    1
    32     3     6    1
@<TRIPOS>MOLECULE
*****
 30 32 0 0 0
SMALL
GASTEIGER

@<TRIPOS>ATOM
      1 C         138.3838  139.0785  166.5335 C.3     1  UNL1        0.0926
      2 C         137.3891  138.6388  167.5666 C.3     1  UNL1        0.0887
      3 N         137.0610  137.1978  167.3104 N.3     1  UNL1       -0.2958
      4 C         137.8529  136.7468  166.1189 C.3     1  UNL1        0.0747
      5 C         138.6705  137.9092  165.6388 C.3     1  UNL1        0.0573
      6 H         136.0636  137.0982  167.1209 H       1  UNL1        0.1233
      7 C         139.6097  137.9033  164.4693 C.ar    1  UNL1       -0.0195
      8 C         141.0921  137.8842  164.6981 C.ar    1  UNL1       -0.0042
      9 C         142.0314  137.8782  163.5286 C.ar    1  UNL1        0.0035
     10 C         141.4884  137.8913  162.1304 C.ar    1  UNL1        0.0714
     11 C         140.0061  137.9105  161.9017 C.ar    1  UNL1        0.0035
     12 C         139.0668  137.9164  163.0711 C.ar    1  UNL1       -0.0042
     13 C         142.4277  137.8854  160.9609 C.3     1  UNL1        0.4186
     14 F         143.3671  137.8794  159.7915 F       1  UNL1       -0.1659
     15 F         141.2708  138.0998  160.0306 F       1  UNL1       -0.1659
     16 F         143.5847  137.6710  161.8913 F       1  UNL1       -0.1659
     17 C         140.0618  140.8778  167.3686 C.2     1  UNL1        0.2269
     18 O         140.5351  139.9396  168.4390 O.2     1  UNL1       -0.2747
     19 N         138.9862  140.4473  166.4159 N.am    1  UNL1       -0.3040
     20 H         138.6755  141.0631  165.7133 H       1  UNL1        0.1494
     21 C         140.6640  142.2465  167.2509 C.3     1  UNL1        0.1113
     22 C         140.6455  144.3798  163.2886 C.ar    1  UNL1        0.0479
     23 C         139.5726  144.6629  164.2979 C.ar    1  UNL1        0.0142
     24 C         139.5788  143.9518  165.6187 C.ar    1  UNL1       -0.0025
     25 C         140.6579  142.9576  165.9301 C.ar    1  UNL1       -0.0130
     26 C         141.7308  142.6744  164.9208 C.ar    1  UNL1       -0.0025
     27 C         141.7247  143.3855  163.6001 C.ar    1  UNL1        0.0142
     28 C         139.7276  146.2619  161.7509 C.3     1  UNL1        0.1122
     29 N         140.6394  145.0908  161.9679 N.pl3   1  UNL1       -0.3041
     30 C         141.5451  144.6308  160.8642 C.3     1  UNL1        0.1122
@<TRIPOS>BOND
     1    28    29    1
     2    29    30    1
     3    29    22    1
     4    22    23   ar
     5    23    24   ar
     6    24    25   ar
     7    25    21    1
     8    21    17    1
     9    17    18    2
    10    17    19   am
    11     1    19    1
    12     1     2    1
    13     2     3    1
    14     3     4    1
    15     4     5    1
    16     5     7    1
    17     7     8   ar
    18     8     9   ar
    19     9    10   ar
    20    10    13    1
    21    13    14    1
    22    13    15    1
    23    13    16    1
    24    10    11   ar
    25    11    12   ar
    26    25    26   ar
    27    26    27   ar
    28    27    22   ar
    29     5     1    1
    30    12     7   ar
    31    19    20    1
    32     3     6    1
@<TRIPOS>MOLECULE
*****
 30 32 0 0 0
SMALL
GASTEIGER

@<TRIPOS>ATOM
      1 C         140.5493  140.2663  168.4285 C.3     1  UNL1        0.0926
      2 C         140.2504  139.7735  169.8133 C.3     1  UNL1        0.0887
      3 N         141.5413  139.3330  170.4374 N.3     1  UNL1       -0.2958
      4 C         142.6382  139.5536  169.4382 C.3     1  UNL1        0.0747
      5 C         142.0251  140.1305  168.1967 C.3     1  UNL1        0.0573
      6 H         141.4884  138.3438  170.6806 H       1  UNL1        0.1233
      7 C         142.7589  140.5055  166.9434 C.ar    1  UNL1       -0.0195
      8 C         143.2668  139.4355  166.0230 C.ar    1  UNL1       -0.0042
      9 C         144.0007  139.8106  164.7697 C.ar    1  UNL1        0.0035
     10 C         144.2266  141.2556  164.4367 C.ar    1  UNL1        0.0714
     11 C         143.7187  142.3256  165.3571 C.ar    1  UNL1        0.0035
     12 C         142.9849  141.9505  166.6104 C.ar    1  UNL1       -0.0042
     13 C         144.9605  141.6307  163.1834 C.3     1  UNL1        0.4186
     14 F         145.6944  142.0058  161.9302 F       1  UNL1       -0.1659
     15 F         143.6537  141.9089  162.5015 F       1  UNL1       -0.1659
     16 F         146.2673  141.3525  163.8653 F       1  UNL1       -0.1659
     17 C         139.2210  140.0209  166.2092 C.2     1  UNL1        0.2269
     18 O         139.8947  138.7057  165.9514 O.2     1  UNL1       -0.2747
     19 N         139.5483  140.8012  167.4477 N.am    1  UNL1       -0.3040
     20 H         139.1061  141.6644  167.6169 H       1  UNL1        0.1494
     21 C         138.2200  140.5557  165.2285 C.3     1  UNL1        0.1113
     22 C         139.4139  143.7829  162.3284 C.ar    1  UNL1        0.0479
     23 C         140.4606  142.9000  162.9406 C.ar    1  UNL1        0.0142
     24 C         140.0627  141.8243  163.9073 C.ar    1  UNL1       -0.0025
     25 C         138.6180  141.6315  164.2618 C.ar    1  UNL1       -0.0130
     26 C         137.5712  142.5144  163.6495 C.ar    1  UNL1       -0.0025
     27 C         137.9691  143.5901  162.6829 C.ar    1  UNL1        0.0142
     28 C         140.3277  144.4916  160.0019 C.3     1  UNL1        0.1122
     29 N         139.8118  144.8586  161.3617 N.pl3   1  UNL1       -0.3041
     30 C         139.6939  146.3014  161.7549 C.3     1  UNL1        0.1122
@<TRIPOS>BOND
     1    28    29    1
     2    29    30    1
     3    29    22    1
     4    22    23   ar
     5    23    24   ar
     6    24    25   ar
     7    25    21    1
     8    21    17    1
     9    17    18    2
    10    17    19   am
    11     1    19    1
    12     1     2    1
    13     2     3    1
    14     3     4    1
    15     4     5    1
    16     5     7    1
    17     7     8   ar
    18     8     9   ar
    19     9    10   ar
    20    10    13    1
    21    13    14    1
    22    13    15    1
    23    13    16    1
    24    10    11   ar
    25    11    12   ar
    26    25    26   ar
    27    26    27   ar
    28    27    22   ar
    29     5     1    1
    30    12     7   ar
    31    19    20    1
    32     3     6    1
@<TRIPOS>MOLECULE
*****
 30 32 0 0 0
SMALL
GASTEIGER

@<TRIPOS>ATOM
      1 C         139.7223  140.4396  168.0643 C.3     1  UNL1        0.0926
      2 C         139.0478  140.2711  169.3935 C.3     1  UNL1        0.0887
      3 N         139.3898  141.4606  170.2410 N.3     1  UNL1       -0.2958
      4 C         140.2757  142.3642  169.4355 C.3     1  UNL1        0.0747
      5 C         140.4812  141.7332  168.0903 C.3     1  UNL1        0.0573
      6 H         139.8790  141.1566  171.0828 H       1  UNL1        0.1233
      7 C         141.3016  142.2969  166.9682 C.ar    1  UNL1       -0.0195
      8 C         140.6351  143.0592  165.8614 C.ar    1  UNL1       -0.0042
      9 C         141.4555  143.6229  164.7393 C.ar    1  UNL1        0.0035
     10 C         142.9422  143.4244  164.7238 C.ar    1  UNL1        0.0714
     11 C         143.6086  142.6621  165.8305 C.ar    1  UNL1        0.0035
     12 C         142.7882  142.0984  166.9527 C.ar    1  UNL1       -0.0042
     13 C         143.7626  143.9881  163.6016 C.3     1  UNL1        0.4186
     14 F         144.5829  144.5518  162.4795 F       1  UNL1       -0.1659
     15 F         144.2102  142.6045  163.2338 F       1  UNL1       -0.1659
     16 F         143.3149  145.3718  163.9695 F       1  UNL1       -0.1659
     17 C         138.4840  138.5484  166.7838 C.2     1  UNL1        0.2269
     18 O         137.3891  138.5712  167.8089 O.2     1  UNL1       -0.2747
     19 N         139.6506  139.4825  166.9115 N.am    1  UNL1       -0.3040
     20 H         140.3691  139.4675  166.2387 H       1  UNL1        0.1494
     21 C         138.4122  137.5913  165.6311 C.3     1  UNL1        0.1113
     22 C         141.2717  138.0059  162.1811 C.ar    1  UNL1        0.0479
     23 C         141.7757  137.5689  163.5247 C.ar    1  UNL1        0.0142
     24 C         140.8225  137.4307  164.6747 C.ar    1  UNL1       -0.0025
     25 C         139.3654  137.7295  164.4811 C.ar    1  UNL1       -0.0130
     26 C         138.8614  138.1664  163.1376 C.ar    1  UNL1       -0.0025
     27 C         139.8145  138.3046  161.9876 C.ar    1  UNL1        0.0142
     28 C         143.6797  137.8322  161.2213 C.3     1  UNL1        0.1122
     29 N         142.2248  138.1440  161.0312 N.pl3   1  UNL1       -0.3041
     30 C         141.7231  138.5940  159.6911 C.3     1  UNL1        0.1122
@<TRIPOS>BOND
     1    28    29    1
     2    29    30    1
     3    29    22    1
     4    22    23   ar
     5    23    24   ar
     6    24    25   ar
     7    25    21    1
     8    21    17    1
     9    17    18    2
    10    17    19   am
    11     1    19    1
    12     1     2    1
    13     2     3    1
    14     3     4    1
    15     4     5    1
    16     5     7    1
    17     7     8   ar
    18     8     9   ar
    19     9    10   ar
    20    10    13    1
    21    13    14    1
    22    13    15    1
    23    13    16    1
    24    10    11   ar
    25    11    12   ar
    26    25    26   ar
    27    26    27   ar
    28    27    22   ar
    29     5     1    1
    30    12     7   ar
    31    19    20    1
    32     3     6    1
@<TRIPOS>MOLECULE
*****
 30 32 0 0 0
SMALL
GASTEIGER

@<TRIPOS>ATOM
      1 C         139.6316  139.4349  160.4506 C.3     1  UNL1        0.0926
      2 C         139.4347  138.7915  159.1099 C.3     1  UNL1        0.0887
      3 N         138.5171  139.6651  158.3068 N.3     1  UNL1       -0.2958
      4 C         138.1469  140.8484  159.1512 C.3     1  UNL1        0.0747
      5 C         138.8357  140.7061  160.4760 C.3     1  UNL1        0.0573
      6 H         137.6775  139.1444  158.0533 H       1  UNL1        0.1233
      7 C         138.7446  141.6664  161.6247 C.ar    1  UNL1       -0.0195
      8 C         137.9355  141.3112  162.8369 C.ar    1  UNL1       -0.0042
      9 C         137.8443  142.2715  163.9855 C.ar    1  UNL1        0.0035
     10 C         138.5622  143.5871  163.9221 C.ar    1  UNL1        0.0714
     11 C         139.3712  143.9423  162.7100 C.ar    1  UNL1        0.0035
     12 C         139.4623  142.9820  161.5613 C.ar    1  UNL1       -0.0042
     13 C         138.4710  144.5474  165.0707 C.3     1  UNL1        0.4186
     14 F         138.3798  145.5078  166.2194 F       1  UNL1       -0.1659
     15 F         139.9613  144.7159  165.0482 F       1  UNL1       -0.1659
     16 F         136.9806  144.3789  165.0933 F       1  UNL1       -0.1659
     17 C         139.8687  138.0000  162.6034 C.2     1  UNL1        0.2269
     18 O         138.4167  137.6331  162.5188 O.2     1  UNL1       -0.2747
     19 N         140.4761  138.9009  161.5694 N.am    1  UNL1       -0.3040
     20 H         141.4291  139.1417  161.6249 H       1  UNL1        0.1494
     21 C         140.7132  137.4659  163.7221 C.3     1  UNL1        0.1113
     22 C         141.4780  139.9915  167.3673 C.ar    1  UNL1        0.0479
     23 C         140.0946  139.9003  166.7949 C.ar    1  UNL1        0.0142
     24 C         139.8396  139.0585  165.5798 C.ar    1  UNL1       -0.0025
     25 C         140.9682  138.3078  164.9372 C.ar    1  UNL1       -0.0130
     26 C         142.3516  138.3990  165.5097 C.ar    1  UNL1       -0.0025
     27 C         142.6066  139.2408  166.7247 C.ar    1  UNL1        0.0142
     28 C         142.4946  142.1195  168.4572 C.3     1  UNL1        0.1122
     29 N         141.7330  140.8333  168.5823 N.pl3   1  UNL1       -0.3041
     30 C         141.2264  140.3890  169.9224 C.3     1  UNL1        0.1122
@<TRIPOS>BOND
     1    28    29    1
     2    29    30    1
     3    29    22    1
     4    22    23   ar
     5    23    24   ar
     6    24    25   ar
     7    25    21    1
     8    21    17    1
     9    17    18    2
    10    17    19   am
    11     1    19    1
    12     1     2    1
    13     2     3    1
    14     3     4    1
    15     4     5    1
    16     5     7    1
    17     7     8   ar
    18     8     9   ar
    19     9    10   ar
    20    10    13    1
    21    13    14    1
    22    13    15    1
    23    13    16    1
    24    10    11   ar
    25    11    12   ar
    26    25    26   ar
    27    26    27   ar
    28    27    22   ar
    29     5     1    1
    30    12     7   ar
    31    19    20    1
    32     3     6    1
@<TRIPOS>MOLECULE
*****
 30 32 0 0 0
SMALL
GASTEIGER

@<TRIPOS>ATOM
      1 C         139.2355  142.6224  160.2025 C.3     1  UNL1        0.0926
      2 C         138.6097  142.7539  158.8456 C.3     1  UNL1        0.0887
      3 N         139.4670  143.6730  158.0269 N.3     1  UNL1       -0.2958
      4 C         140.6227  144.1095  158.8778 C.3     1  UNL1        0.0747
      5 C         140.4796  143.4601  160.2224 C.3     1  UNL1        0.0573
      6 H         138.9240  144.4863  157.7370 H       1  UNL1        0.1233
      7 C         141.4161  143.6205  161.3830 C.ar    1  UNL1       -0.0195
      8 C         142.4196  142.5487  161.6906 C.ar    1  UNL1       -0.0042
      9 C         143.3561  142.7090  162.8512 C.ar    1  UNL1        0.0035
     10 C         143.2893  143.9410  163.7044 C.ar    1  UNL1        0.0714
     11 C         142.2859  145.0127  163.3968 C.ar    1  UNL1        0.0035
     12 C         141.3494  144.8524  162.2361 C.ar    1  UNL1       -0.0042
     13 C         144.2259  144.1013  164.8650 C.3     1  UNL1        0.4186
     14 F         145.1624  144.2616  166.0257 F       1  UNL1       -0.1659
     15 F         144.1279  145.5927  164.7381 F       1  UNL1       -0.1659
     16 F         144.3239  142.6099  164.9919 F       1  UNL1       -0.1659
     17 C         137.9710  142.4580  162.4661 C.2     1  UNL1        0.2269
     18 O         137.7585  143.9428  162.4552 O.2     1  UNL1       -0.2747
     19 N         138.7095  141.7978  161.3398 N.am    1  UNL1       -0.3040
     20 H         138.8490  140.8232  161.3470 H       1  UNL1        0.1494
     21 C         137.4451  141.6334  163.6034 C.3     1  UNL1        0.1113
     22 C         140.1910  140.4049  166.9502 C.ar    1  UNL1        0.0479
     23 C         139.0566  139.5113  166.5445 C.ar    1  UNL1        0.0142
     24 C         138.1413  139.9208  165.4289 C.ar    1  UNL1       -0.0025
     25 C         138.3604  141.2239  164.7190 C.ar    1  UNL1       -0.0130
     26 C         139.4948  142.1175  165.1247 C.ar    1  UNL1       -0.0025
     27 C         140.4101  141.7081  166.2403 C.ar    1  UNL1        0.0142
     28 C         142.5089  139.5586  167.7630 C.3     1  UNL1        0.1122
     29 N         141.1063  139.9955  168.0658 N.pl3   1  UNL1       -0.3041
     30 C         140.6189  140.0228  169.4842 C.3     1  UNL1        0.1122
@<TRIPOS>BOND
     1    28    29    1
     2    29    30    1
     3    29    22    1
     4    22    23   ar
     5    23    24   ar
     6    24    25   ar
     7    25    21    1
     8    21    17    1
     9    17    18    2
    10    17    19   am
    11     1    19    1
    12     1     2    1
    13     2     3    1
    14     3     4    1
    15     4     5    1
    16     5     7    1
    17     7     8   ar
    18     8     9   ar
    19     9    10   ar
    20    10    13    1
    21    13    14    1
    22    13    15    1
    23    13    16    1
    24    10    11   ar
    25    11    12   ar
    26    25    26   ar
    27    26    27   ar
    28    27    22   ar
    29     5     1    1
    30    12     7   ar
    31    19    20    1
    32     3     6    1
@<TRIPOS>MOLECULE
*****
 30 32 0 0 0
SMALL
GASTEIGER

@<TRIPOS>ATOM
      1 C         140.9436  139.5264  161.0172 C.3     1  UNL1        0.0926
      2 C         140.9899  139.3045  159.5344 C.3     1  UNL1        0.0887
      3 N         139.7595  138.5419  159.1412 N.3     1  UNL1       -0.2958
      4 C         138.9527  138.2926  160.3810 C.3     1  UNL1        0.0747
      5 C         139.6846  138.9011  161.5404 C.3     1  UNL1        0.0573
      6 H         140.0241  137.6534  158.7159 H       1  UNL1        0.1233
      7 C         139.2360  138.8867  162.9717 C.ar    1  UNL1       -0.0195
      8 C         138.6599  140.1262  163.5896 C.ar    1  UNL1       -0.0042
      9 C         138.2114  140.1118  165.0209 C.ar    1  UNL1        0.0035
     10 C         138.3389  138.8580  165.8343 C.ar    1  UNL1        0.0714
     11 C         138.9150  137.6185  165.2164 C.ar    1  UNL1        0.0035
     12 C         139.3635  137.6329  163.7851 C.ar    1  UNL1       -0.0042
     13 C         137.8904  138.8435  167.2656 C.3     1  UNL1        0.4186
     14 F         137.4419  138.8291  168.6969 F       1  UNL1       -0.1659
     15 F         138.7774  140.0179  167.5554 F       1  UNL1       -0.1659
     16 F         137.0034  137.6691  166.9758 F       1  UNL1       -0.1659
     17 C         142.9223  139.4712  162.7001 C.2     1  UNL1        0.2269
     18 O         142.8377  137.9744  162.7504 O.2     1  UNL1       -0.2747
     19 N         141.9753  140.2472  161.8335 N.am    1  UNL1       -0.3040
     20 H         142.0308  141.2296  161.8005 H       1  UNL1        0.1494
     21 C         143.9539  140.1920  163.5163 C.3     1  UNL1        0.1113
     22 C         142.8684  141.8553  167.5544 C.ar    1  UNL1        0.0479
     23 C         142.5288  140.4348  167.2124 C.ar    1  UNL1        0.0142
     24 C         142.8906  139.8804  165.8663 C.ar    1  UNL1       -0.0025
     25 C         143.5920  140.7464  164.8623 C.ar    1  UNL1       -0.0130
     26 C         143.9317  142.1669  165.2043 C.ar    1  UNL1       -0.0025
     27 C         143.5699  142.7213  166.5503 C.ar    1  UNL1        0.0142
     28 C         141.1097  142.8885  169.1634 C.3     1  UNL1        0.1122
     29 N         142.5067  142.4097  168.9003 N.pl3   1  UNL1       -0.3041
     30 C         143.5418  142.4853  169.9833 C.3     1  UNL1        0.1122
@<TRIPOS>BOND
     1    28    29    1
     2    29    30    1
     3    29    22    1
     4    22    23   ar
     5    23    24   ar
     6    24    25   ar
     7    25    21    1
     8    21    17    1
     9    17    18    2
    10    17    19   am
    11     1    19    1
    12     1     2    1
    13     2     3    1
    14     3     4    1
    15     4     5    1
    16     5     7    1
    17     7     8   ar
    18     8     9   ar
    19     9    10   ar
    20    10    13    1
    21    13    14    1
    22    13    15    1
    23    13    16    1
    24    10    11   ar
    25    11    12   ar
    26    25    26   ar
    27    26    27   ar
    28    27    22   ar
    29     5     1    1
    30    12     7   ar
    31    19    20    1
    32     3     6    1
@<TRIPOS>MOLECULE
*****
 30 32 0 0 0
SMALL
GASTEIGER

@<TRIPOS>ATOM
      1 C         140.1256  140.8746  167.7307 C.3     1  UNL1        0.0926
      2 C         140.1760  140.5746  169.1995 C.3     1  UNL1        0.0887
      3 N         140.4543  141.8574  169.9254 N.3     1  UNL1       -0.2958
      4 C         140.5759  142.9503  168.9050 C.3     1  UNL1        0.0747
      5 C         140.3727  142.3428  167.5487 C.3     1  UNL1        0.0573
      6 H         141.3248  141.7761  170.4508 H       1  UNL1        0.1233
      7 C         140.4101  143.0751  166.2401 C.ar    1  UNL1       -0.0195
      8 C         141.5974  142.9324  165.3345 C.ar    1  UNL1       -0.0042
      9 C         141.6348  143.6647  164.0260 C.ar    1  UNL1        0.0035
     10 C         140.4850  144.5396  163.6229 C.ar    1  UNL1        0.0714
     11 C         139.2978  144.6823  164.5285 C.ar    1  UNL1        0.0035
     12 C         139.2604  143.9500  165.8371 C.ar    1  UNL1       -0.0042
     13 C         140.5224  145.2719  162.3144 C.3     1  UNL1        0.4186
     14 F         140.5598  146.0042  161.0058 F       1  UNL1       -0.1659
     15 F         139.1017  145.7082  162.5179 F       1  UNL1       -0.1659
     16 F         141.9431  144.8357  162.1108 F       1  UNL1       -0.1659
     17 C         138.7427  138.9017  166.7583 C.2     1  UNL1        0.2269
     18 O         137.8659  138.9165  167.9754 O.2     1  UNL1       -0.2747
     19 N         139.8725  139.8807  166.6360 N.am    1  UNL1       -0.3040
     20 H         140.4479  139.8710  165.8372 H       1  UNL1        0.1494
     21 C         138.4896  137.9079  165.6637 C.3     1  UNL1        0.1113
     22 C         140.9129  138.0677  161.8752 C.ar    1  UNL1        0.0479
     23 C         139.5256  138.6376  161.9027 C.ar    1  UNL1        0.0142
     24 C         138.7178  138.5843  163.1656 C.ar    1  UNL1       -0.0025
     25 C         139.2974  137.9612  164.4008 C.ar    1  UNL1       -0.0130
     26 C         140.6846  137.3914  164.3733 C.ar    1  UNL1       -0.0025
     27 C         141.4924  137.4446  163.1105 C.ar    1  UNL1        0.0142
     28 C         141.1016  138.6372  159.3474 C.3     1  UNL1        0.1122
     29 N         141.7206  138.1210  160.6124 N.pl3   1  UNL1       -0.3041
     30 C         143.1474  137.6580  160.6146 C.3     1  UNL1        0.1122
@<TRIPOS>BOND
     1    28    29    1
     2    29    30    1
     3    29    22    1
     4    22    23   ar
     5    23    24   ar
     6    24    25   ar
     7    25    21    1
     8    21    17    1
     9    17    18    2
    10    17    19   am
    11     1    19    1
    12     1     2    1
    13     2     3    1
    14     3     4    1
    15     4     5    1
    16     5     7    1
    17     7     8   ar
    18     8     9   ar
    19     9    10   ar
    20    10    13    1
    21    13    14    1
    22    13    15    1
    23    13    16    1
    24    10    11   ar
    25    11    12   ar
    26    25    26   ar
    27    26    27   ar
    28    27    22   ar
    29     5     1    1
    30    12     7   ar
    31    19    20    1
    32     3     6    1
@<TRIPOS>MOLECULE
*****
 30 32 0 0 0
SMALL
GASTEIGER

@<TRIPOS>ATOM
      1 C         143.2439  139.7930  161.8861 C.3     1  UNL1        0.0926
      2 C         144.0259  139.6241  160.6172 C.3     1  UNL1        0.0887
      3 N         143.3838  138.5281  159.8194 N.3     1  UNL1       -0.2958
      4 C         142.2049  138.0196  160.5953 C.3     1  UNL1        0.0747
      5 C         142.1186  138.8014  161.8725 C.3     1  UNL1        0.0573
      6 H         144.0518  137.7720  159.6696 H       1  UNL1        0.1233
      7 C         141.0878  138.6229  162.9475 C.ar    1  UNL1       -0.0195
      8 C         140.0081  139.6484  163.1290 C.ar    1  UNL1       -0.0042
      9 C         138.9773  139.4698  164.2039 C.ar    1  UNL1        0.0035
     10 C         139.0260  138.2659  165.0974 C.ar    1  UNL1        0.0714
     11 C         140.1057  137.2406  164.9159 C.ar    1  UNL1        0.0035
     12 C         141.1365  137.4191  163.8410 C.ar    1  UNL1       -0.0042
     13 C         137.9952  138.0874  166.1724 C.3     1  UNL1        0.4186
     14 F         136.9644  137.9088  167.2473 F       1  UNL1       -0.1659
     15 F         137.8687  139.5767  166.2984 F       1  UNL1       -0.1659
     16 F         138.1218  136.5980  166.0463 F       1  UNL1       -0.1659
     17 C         142.7758  142.0715  163.0434 C.2     1  UNL1        0.2269
     18 O         141.7232  142.3756  162.0189 O.2     1  UNL1       -0.2747
     19 N         143.5362  140.7803  162.9770 N.am    1  UNL1       -0.3040
     20 H         144.2270  140.5807  163.6494 H       1  UNL1        0.1494
     21 C         143.0680  143.0587  164.1342 C.3     1  UNL1        0.1113
     22 C         141.5712  142.3055  168.3107 C.ar    1  UNL1        0.0479
     23 C         143.0446  142.2985  168.0294 C.ar    1  UNL1        0.0142
     24 C         143.5435  142.5496  166.6372 C.ar    1  UNL1       -0.0025
     25 C         142.5691  142.8076  165.5264 C.ar    1  UNL1       -0.0130
     26 C         141.0957  142.8146  165.8078 C.ar    1  UNL1       -0.0025
     27 C         140.5968  142.5635  167.1999 C.ar    1  UNL1        0.0142
     28 C         139.9783  142.9077  170.2727 C.3     1  UNL1        0.1122
     29 N         141.0723  142.0544  169.7028 N.pl3   1  UNL1       -0.3041
     30 C         141.6674  140.9500  170.5251 C.3     1  UNL1        0.1122
@<TRIPOS>BOND
     1    28    29    1
     2    29    30    1
     3    29    22    1
     4    22    23   ar
     5    23    24   ar
     6    24    25   ar
     7    25    21    1
     8    21    17    1
     9    17    18    2
    10    17    19   am
    11     1    19    1
    12     1     2    1
    13     2     3    1
    14     3     4    1
    15     4     5    1
    16     5     7    1
    17     7     8   ar
    18     8     9   ar
    19     9    10   ar
    20    10    13    1
    21    13    14    1
    22    13    15    1
    23    13    16    1
    24    10    11   ar
    25    11    12   ar
    26    25    26   ar
    27    26    27   ar
    28    27    22   ar
    29     5     1    1
    30    12     7   ar
    31    19    20    1
    32     3     6    1
