@<TRIPOS>MOLECULE
*****
 38 41 0 0 0
SMALL
GASTEIGER

@<TRIPOS>ATOM
      1 C         141.6757  144.6127  161.4272 C.3     1  UNL1        0.1694
      2 C         141.4380  144.9123  162.8776 C.3     1  UNL1        0.0650
      3 C         142.3556  144.3461  163.9205 C.3     1  UNL1        0.0971
      4 N         143.5107  143.4804  163.5130 N.am    1  UNL1       -0.2790
      5 C         144.4281  142.9142  164.5560 C.2     1  UNL1        0.2301
      6 O         145.5833  142.0484  164.1485 O.2     1  UNL1       -0.2745
      7 C         143.7484  143.1808  162.0626 C.3     1  UNL1        0.0971
      8 C         142.8309  143.7469  161.0197 C.3     1  UNL1        0.0650
      9 O         140.7583  145.1789  160.3843 O.3     1  UNL1       -0.4774
     10 C         138.5306  142.4223  157.6114 C.ar    1  UNL1        0.0847
     11 C         138.4885  142.1905  159.0928 C.ar    1  UNL1        0.0224
     12 C         139.2311  143.1093  160.0170 C.ar    1  UNL1        0.0402
     13 C         140.0157  144.2600  159.4599 C.ar    1  UNL1        0.1604
     14 C         140.0578  144.4918  157.9786 C.ar    1  UNL1        0.1679
     15 N         139.3153  143.5729  157.0543 N.ar    1  UNL1       -0.2377
     16 C         134.7858  140.3840  154.4965 C.3     1  UNL1        0.1538
     17 N         136.0667  140.5665  155.2553 N.ar    1  UNL1       -0.2473
     18 C         136.4154  141.7352  156.1285 C.ar    1  UNL1        0.0982
     19 C         137.7881  141.5034  156.6871 C.ar    1  UNL1        0.0573
     20 C         138.2878  140.1913  156.1591 C.ar    1  UNL1        0.1231
     21 N         137.2240  139.6123  155.2742 N.ar    1  UNL1       -0.1675
     22 C         140.8425  145.6424  157.4215 C.2     1  UNL1        0.2635
     23 N         142.2429  145.8948  157.8958 N.am    1  UNL1       -0.3240
     24 O         140.2267  146.5406  156.3900 O.2     1  UNL1       -0.2686
     25 H         142.6471  145.3052  158.5728 H       1  UNL1        0.1453
     26 H         142.7579  146.6500  157.5301 H       1  UNL1        0.1453
     27 C         144.1904  143.2138  166.0064 C.3     1  UNL1        0.1116
     28 C         143.3079  142.3166  166.8227 C.ar    1  UNL1       -0.0129
     29 C         142.3805  141.3547  166.1411 C.ar    1  UNL1       -0.0007
     30 C         141.4980  140.4575  166.9573 C.ar    1  UNL1        0.0369
     31 C         141.5429  140.5223  168.4552 C.ar    1  UNL1        0.1468
     32 C         142.4703  141.4842  169.1368 C.ar    1  UNL1        0.0369
     33 C         143.3528  142.3814  168.3206 C.ar    1  UNL1       -0.0007
     34 O         140.6604  139.6251  169.2715 O.3     1  UNL1       -0.4045
     35 C         139.3365  140.1255  169.7684 C.3     1  UNL1        0.5753
     36 F         138.0126  140.6259  170.2652 F       1  UNL1       -0.1328
     37 F         138.6886  139.6794  168.4912 F       1  UNL1       -0.1328
     38 F         139.9845  140.5717  171.0455 F       1  UNL1       -0.1328
@<TRIPOS>BOND
     1    16    17    1
     2    17    18   ar
     3    18    19   ar
     4    19    10    1
     5    10    11   ar
     6    11    12   ar
     7    12    13   ar
     8    13     9    1
     9     9     1    1
    10     1     2    1
    11     2     3    1
    12     3     4    1
    13     4     5   am
    14     5     6    2
    15     5    27    1
    16    27    28    1
    17    28    29   ar
    18    29    30   ar
    19    30    31   ar
    20    31    34    1
    21    34    35    1
    22    35    36    1
    23    35    37    1
    24    35    38    1
    25    31    32   ar
    26    32    33   ar
    27     4     7    1
    28     7     8    1
    29    13    14   ar
    30    14    22    1
    31    22    23   am
    32    22    24    2
    33    14    15   ar
    34    19    20   ar
    35    20    21   ar
    36    21    17   ar
    37    15    10   ar
    38     8     1    1
    39    33    28   ar
    40    23    25    1
    41    23    26    1
@<TRIPOS>MOLECULE
*****
 38 41 0 0 0
SMALL
GASTEIGER

@<TRIPOS>ATOM
      1 C         140.5511  143.3580  165.0315 C.3     1  UNL1        0.1694
      2 C         140.2157  142.2179  164.1163 C.3     1  UNL1        0.0650
      3 C         139.6820  140.9347  164.6811 C.3     1  UNL1        0.0971
      4 N         139.4838  140.7918  166.1610 N.am    1  UNL1       -0.2790
      5 C         138.9501  139.5088  166.7257 C.2     1  UNL1        0.2301
      6 O         138.7518  139.3658  168.2057 O.2     1  UNL1       -0.2745
      7 C         139.8191  141.9320  167.0762 C.3     1  UNL1        0.0971
      8 C         140.3528  143.2151  166.5115 C.3     1  UNL1        0.0650
      9 O         141.0847  144.6411  164.4667 O.3     1  UNL1       -0.4774
     10 C         141.2075  145.2593  160.0111 C.ar    1  UNL1        0.0847
     11 C         140.0200  145.7249  160.8004 C.ar    1  UNL1        0.0224
     12 C         139.9791  145.5188  162.2856 C.ar    1  UNL1        0.0402
     13 C         141.1256  144.8471  162.9815 C.ar    1  UNL1        0.1604
     14 C         142.3131  144.3816  162.1922 C.ar    1  UNL1        0.1679
     15 N         142.3541  144.5877  160.7070 N.ar    1  UNL1       -0.2377
     16 C         139.9097  146.7233  155.1066 C.3     1  UNL1        0.1538
     17 N         140.6519  146.1383  156.2715 N.ar    1  UNL1       -0.2473
     18 C         140.2054  146.1622  157.7033 C.ar    1  UNL1        0.0982
     19 C         141.2484  145.4654  158.5258 C.ar    1  UNL1        0.0573
     20 C         142.3396  145.0109  157.6024 C.ar    1  UNL1        0.1231
     21 N         141.9709  145.4267  156.2092 N.ar    1  UNL1       -0.1675
     22 C         143.4597  143.7099  162.8880 C.2     1  UNL1        0.2635
     23 N         143.9923  144.2742  164.1717 N.am    1  UNL1       -0.3240
     24 O         144.0737  142.4740  162.3002 O.2     1  UNL1       -0.2686
     25 H         143.5894  145.0853  164.5575 H       1  UNL1        0.1453
     26 H         144.7449  143.8333  164.6284 H       1  UNL1        0.1453
     27 C         138.6148  138.3686  165.8105 C.3     1  UNL1        0.1116
     28 C         139.4735  138.0912  164.6123 C.ar    1  UNL1       -0.0129
     29 C         138.8722  138.1091  163.2382 C.ar    1  UNL1       -0.0007
     30 C         139.7308  137.8316  162.0401 C.ar    1  UNL1        0.0369
     31 C         141.1908  137.5362  162.2159 C.ar    1  UNL1        0.1468
     32 C         141.7922  137.5183  163.5900 C.ar    1  UNL1        0.0369
     33 C         140.9336  137.7958  164.7882 C.ar    1  UNL1       -0.0007
     34 O         142.0496  137.2587  161.0177 O.3     1  UNL1       -0.4045
     35 C         143.1427  138.2143  160.6410 C.3     1  UNL1        0.5753
     36 F         144.2359  139.1699  160.2642 F       1  UNL1       -0.1328
     37 F         144.1531  137.3129  161.2863 F       1  UNL1       -0.1328
     38 F         142.1323  139.1157  159.9956 F       1  UNL1       -0.1328
@<TRIPOS>BOND
     1    16    17    1
     2    17    18   ar
     3    18    19   ar
     4    19    10    1
     5    10    11   ar
     6    11    12   ar
     7    12    13   ar
     8    13     9    1
     9     9     1    1
    10     1     2    1
    11     2     3    1
    12     3     4    1
    13     4     5   am
    14     5     6    2
    15     5    27    1
    16    27    28    1
    17    28    29   ar
    18    29    30   ar
    19    30    31   ar
    20    31    34    1
    21    34    35    1
    22    35    36    1
    23    35    37    1
    24    35    38    1
    25    31    32   ar
    26    32    33   ar
    27     4     7    1
    28     7     8    1
    29    13    14   ar
    30    14    22    1
    31    22    23   am
    32    22    24    2
    33    14    15   ar
    34    19    20   ar
    35    20    21   ar
    36    21    17   ar
    37    15    10   ar
    38     8     1    1
    39    33    28   ar
    40    23    25    1
    41    23    26    1
@<TRIPOS>MOLECULE
*****
 38 41 0 0 0
SMALL
GASTEIGER

@<TRIPOS>ATOM
      1 C         140.2835  139.7362  158.6038 C.3     1  UNL1        0.1694
      2 C         140.3077  138.7408  159.7256 C.3     1  UNL1        0.0650
      3 C         139.5211  139.0010  160.9762 C.3     1  UNL1        0.0971
      4 N         138.7104  140.2564  161.1047 N.am    1  UNL1       -0.2790
      5 C         137.9239  140.5165  162.3552 C.2     1  UNL1        0.2301
      6 O         137.1131  141.7720  162.4838 O.2     1  UNL1       -0.2745
      7 C         138.6862  141.2518  159.9828 C.3     1  UNL1        0.0971
      8 C         139.4727  140.9917  158.7324 C.3     1  UNL1        0.0650
      9 O         141.0700  139.4761  157.3533 O.3     1  UNL1       -0.4774
     10 C         142.0606  135.2531  156.1557 C.ar    1  UNL1        0.0847
     11 C         142.9766  136.0067  157.0738 C.ar    1  UNL1        0.0224
     12 C         142.6464  137.4144  157.4729 C.ar    1  UNL1        0.0402
     13 C         141.4002  138.0684  156.9541 C.ar    1  UNL1        0.1604
     14 C         140.4842  137.3148  156.0360 C.ar    1  UNL1        0.1679
     15 N         140.8144  135.9071  155.6368 N.ar    1  UNL1       -0.2377
     16 C         141.5930  130.2670  154.4818 C.3     1  UNL1        0.1538
     17 N         142.1758  131.5535  154.9870 N.ar    1  UNL1       -0.2473
     18 C         141.4150  132.8147  155.2709 C.ar    1  UNL1        0.0982
     19 C         142.3908  133.8453  155.7564 C.ar    1  UNL1        0.0573
     20 C         143.7546  133.2211  155.7727 C.ar    1  UNL1        0.1231
     21 N         143.6218  131.8047  155.2972 N.ar    1  UNL1       -0.1675
     22 C         139.2380  137.9688  155.5171 C.2     1  UNL1        0.2635
     23 N         139.2816  139.3877  155.0328 N.am    1  UNL1       -0.3240
     24 O         137.9482  137.2038  155.4825 O.2     1  UNL1       -0.2686
     25 H         140.1281  139.8898  155.0555 H       1  UNL1        0.1453
     26 H         138.4637  139.8170  154.6922 H       1  UNL1        0.1453
     27 C         137.9481  139.5211  163.4771 C.3     1  UNL1        0.1116
     28 C         138.5553  139.8935  164.7972 C.ar    1  UNL1       -0.0129
     29 C         138.2175  139.1045  166.0274 C.ar    1  UNL1       -0.0007
     30 C         138.8247  139.4769  167.3474 C.ar    1  UNL1        0.0369
     31 C         139.7696  140.6383  167.4374 C.ar    1  UNL1        0.1468
     32 C         140.1073  141.4274  166.2072 C.ar    1  UNL1        0.0369
     33 C         139.5002  141.0550  164.8871 C.ar    1  UNL1       -0.0007
     34 O         140.3768  141.0108  168.7575 O.3     1  UNL1       -0.4045
     35 C         139.9745  140.2763  170.0019 C.3     1  UNL1        0.5753
     36 F         139.5721  139.5418  171.2464 F       1  UNL1       -0.1328
     37 F         138.8140  141.2103  170.1780 F       1  UNL1       -0.1328
     38 F         141.1349  139.3423  169.8259 F       1  UNL1       -0.1328
@<TRIPOS>BOND
     1    16    17    1
     2    17    18   ar
     3    18    19   ar
     4    19    10    1
     5    10    11   ar
     6    11    12   ar
     7    12    13   ar
     8    13     9    1
     9     9     1    1
    10     1     2    1
    11     2     3    1
    12     3     4    1
    13     4     5   am
    14     5     6    2
    15     5    27    1
    16    27    28    1
    17    28    29   ar
    18    29    30   ar
    19    30    31   ar
    20    31    34    1
    21    34    35    1
    22    35    36    1
    23    35    37    1
    24    35    38    1
    25    31    32   ar
    26    32    33   ar
    27     4     7    1
    28     7     8    1
    29    13    14   ar
    30    14    22    1
    31    22    23   am
    32    22    24    2
    33    14    15   ar
    34    19    20   ar
    35    20    21   ar
    36    21    17   ar
    37    15    10   ar
    38     8     1    1
    39    33    28   ar
    40    23    25    1
    41    23    26    1
@<TRIPOS>MOLECULE
*****
 38 41 0 0 0
SMALL
GASTEIGER

@<TRIPOS>ATOM
      1 C         143.0503  143.1533  162.3026 C.3     1  UNL1        0.1694
      2 C         141.9032  142.5949  163.0916 C.3     1  UNL1        0.0650
      3 C         142.0976  141.3669  163.9309 C.3     1  UNL1        0.0971
      4 N         143.4389  140.6973  163.9811 N.am    1  UNL1       -0.2790
      5 C         143.6332  139.4694  164.8204 C.2     1  UNL1        0.2301
      6 O         144.9745  138.7998  164.8706 O.2     1  UNL1       -0.2745
      7 C         144.5859  141.2557  163.1921 C.3     1  UNL1        0.0971
      8 C         144.3916  142.4837  162.3529 C.3     1  UNL1        0.0650
      9 O         142.8560  144.3812  161.4634 O.3     1  UNL1       -0.4774
     10 C         140.1046  144.2620  157.9045 C.ar    1  UNL1        0.0847
     11 C         141.5096  143.7511  157.7836 C.ar    1  UNL1        0.0224
     12 C         142.4267  143.7908  158.9699 C.ar    1  UNL1        0.0402
     13 C         141.9388  144.3415  160.2770 C.ar    1  UNL1        0.1604
     14 C         140.5337  144.8525  160.3979 C.ar    1  UNL1        0.1679
     15 N         139.6166  144.8127  159.2117 N.ar    1  UNL1       -0.2377
     16 C         136.6000  142.6043  154.3196 C.3     1  UNL1        0.1538
     17 N         137.5765  143.4603  155.0704 N.ar    1  UNL1       -0.2473
     18 C         138.3255  143.0650  156.3084 C.ar    1  UNL1        0.0982
     19 C         139.1874  144.2223  156.7182 C.ar    1  UNL1        0.0573
     20 C         138.9710  145.3329  155.7334 C.ar    1  UNL1        0.1231
     21 N         137.9754  144.8620  154.7151 N.ar    1  UNL1       -0.1675
     22 C         140.0458  145.4031  161.7051 C.2     1  UNL1        0.2635
     23 N         140.9863  146.1537  162.6006 N.am    1  UNL1       -0.3240
     24 O         138.6173  145.2033  162.1167 O.2     1  UNL1       -0.2686
     25 H         141.9239  146.2849  162.3305 H       1  UNL1        0.1453
     26 H         140.6660  146.5152  163.4585 H       1  UNL1        0.1453
     27 C         142.4861  138.9110  165.6094 C.3     1  UNL1        0.1116
     28 C         141.9616  139.6568  166.8005 C.ar    1  UNL1       -0.0129
     29 C         142.8234  139.8305  168.0158 C.ar    1  UNL1       -0.0007
     30 C         142.2989  140.5763  169.2068 C.ar    1  UNL1        0.0369
     31 C         140.9126  141.1484  169.1826 C.ar    1  UNL1        0.1468
     32 C         140.0507  140.9747  167.9672 C.ar    1  UNL1        0.0369
     33 C         140.5752  140.2289  166.7762 C.ar    1  UNL1       -0.0007
     34 O         140.3880  141.8942  170.3737 O.3     1  UNL1       -0.4045
     35 C         140.2369  143.3855  170.3178 C.3     1  UNL1        0.5753
     36 F         140.0859  144.8769  170.2620 F       1  UNL1       -0.1328
     37 F         141.4719  143.4789  169.4715 F       1  UNL1       -0.1328
     38 F         139.0020  143.2921  171.1641 F       1  UNL1       -0.1328
@<TRIPOS>BOND
     1    16    17    1
     2    17    18   ar
     3    18    19   ar
     4    19    10    1
     5    10    11   ar
     6    11    12   ar
     7    12    13   ar
     8    13     9    1
     9     9     1    1
    10     1     2    1
    11     2     3    1
    12     3     4    1
    13     4     5   am
    14     5     6    2
    15     5    27    1
    16    27    28    1
    17    28    29   ar
    18    29    30   ar
    19    30    31   ar
    20    31    34    1
    21    34    35    1
    22    35    36    1
    23    35    37    1
    24    35    38    1
    25    31    32   ar
    26    32    33   ar
    27     4     7    1
    28     7     8    1
    29    13    14   ar
    30    14    22    1
    31    22    23   am
    32    22    24    2
    33    14    15   ar
    34    19    20   ar
    35    20    21   ar
    36    21    17   ar
    37    15    10   ar
    38     8     1    1
    39    33    28   ar
    40    23    25    1
    41    23    26    1
@<TRIPOS>MOLECULE
*****
 38 41 0 0 0
SMALL
GASTEIGER

@<TRIPOS>ATOM
      1 C         140.1295  139.7187  160.5551 C.3     1  UNL1        0.1694
      2 C         139.6362  140.8225  161.4430 C.3     1  UNL1        0.0650
      3 C         139.1880  140.5165  162.8414 C.3     1  UNL1        0.0971
      4 N         139.2331  139.1068  163.3519 N.am    1  UNL1       -0.2790
      5 C         138.7849  138.8008  164.7502 C.2     1  UNL1        0.2301
      6 O         138.8300  137.3911  165.2608 O.2     1  UNL1       -0.2745
      7 C         139.7264  138.0030  162.4640 C.3     1  UNL1        0.0971
      8 C         140.1746  138.3089  161.0656 C.3     1  UNL1        0.0650
      9 O         140.5777  140.0247  159.1567 O.3     1  UNL1       -0.4774
     10 C         141.5607  136.6690  156.3241 C.ar    1  UNL1        0.0847
     11 C         140.1365  137.1025  156.5079 C.ar    1  UNL1        0.0224
     12 C         139.8089  138.2210  157.4520 C.ar    1  UNL1        0.0402
     13 C         140.9054  138.9061  158.2125 C.ar    1  UNL1        0.1604
     14 C         142.3296  138.4726  158.0288 C.ar    1  UNL1        0.1679
     15 N         142.6572  137.3541  157.0846 N.ar    1  UNL1       -0.2377
     16 C         142.9737  131.9467  154.4309 C.3     1  UNL1        0.1538
     17 N         142.5379  133.3798  154.5097 N.ar    1  UNL1       -0.2473
     18 C         142.3160  134.1660  155.7678 C.ar    1  UNL1        0.0982
     19 C         141.8884  135.5505  155.3799 C.ar    1  UNL1        0.0573
     20 C         141.8462  135.6200  153.8821 C.ar    1  UNL1        0.1231
     21 N         142.2476  134.2785  153.3443 N.ar    1  UNL1       -0.1675
     22 C         143.4261  139.1577  158.7892 C.2     1  UNL1        0.2635
     23 N         144.3319  140.1271  158.0893 N.am    1  UNL1       -0.3240
     24 O         143.6169  138.8735  160.2496 O.2     1  UNL1       -0.2686
     25 H         144.2067  140.3136  157.1308 H       1  UNL1        0.1453
     26 H         145.0516  140.5767  158.5884 H       1  UNL1        0.1453
     27 C         138.2916  139.9046  165.6381 C.3     1  UNL1        0.1116
     28 C         139.1467  140.3972  166.7679 C.ar    1  UNL1       -0.0129
     29 C         140.0288  141.5948  166.5738 C.ar    1  UNL1       -0.0007
     30 C         140.8838  142.0875  167.7035 C.ar    1  UNL1        0.0369
     31 C         140.8568  141.3824  169.0272 C.ar    1  UNL1        0.1468
     32 C         139.9748  140.1848  169.2212 C.ar    1  UNL1        0.0369
     33 C         139.1197  139.6922  168.0916 C.ar    1  UNL1       -0.0007
     34 O         141.7119  141.8750  170.1569 O.3     1  UNL1       -0.4045
     35 C         143.1531  142.2129  169.9145 C.3     1  UNL1        0.5753
     36 F         144.5943  142.5508  169.6722 F       1  UNL1       -0.1328
     37 F         142.9234  143.5886  170.4666 F       1  UNL1       -0.1328
     38 F         143.3828  140.8373  169.3624 F       1  UNL1       -0.1328
@<TRIPOS>BOND
     1    16    17    1
     2    17    18   ar
     3    18    19   ar
     4    19    10    1
     5    10    11   ar
     6    11    12   ar
     7    12    13   ar
     8    13     9    1
     9     9     1    1
    10     1     2    1
    11     2     3    1
    12     3     4    1
    13     4     5   am
    14     5     6    2
    15     5    27    1
    16    27    28    1
    17    28    29   ar
    18    29    30   ar
    19    30    31   ar
    20    31    34    1
    21    34    35    1
    22    35    36    1
    23    35    37    1
    24    35    38    1
    25    31    32   ar
    26    32    33   ar
    27     4     7    1
    28     7     8    1
    29    13    14   ar
    30    14    22    1
    31    22    23   am
    32    22    24    2
    33    14    15   ar
    34    19    20   ar
    35    20    21   ar
    36    21    17   ar
    37    15    10   ar
    38     8     1    1
    39    33    28   ar
    40    23    25    1
    41    23    26    1
@<TRIPOS>MOLECULE
*****
 38 41 0 0 0
SMALL
GASTEIGER

@<TRIPOS>ATOM
      1 C         140.2242  140.9493  159.9372 C.3     1  UNL1        0.1694
      2 C         140.5245  139.9210  160.9873 C.3     1  UNL1        0.0650
      3 C         139.9011  140.0335  162.3470 C.3     1  UNL1        0.0971
      4 N         138.9775  141.1741  162.6567 N.am    1  UNL1       -0.2790
      5 C         138.3542  141.2865  164.0164 C.2     1  UNL1        0.2301
      6 O         137.4306  142.4271  164.3261 O.2     1  UNL1       -0.2745
      7 C         138.6772  142.2023  161.6067 C.3     1  UNL1        0.0971
      8 C         139.3005  142.0899  160.2470 C.3     1  UNL1        0.0650
      9 O         140.8475  140.8369  158.5775 O.3     1  UNL1       -0.4774
     10 C         141.9537  136.7954  156.9366 C.ar    1  UNL1        0.0847
     11 C         140.5630  137.3255  156.7501 C.ar    1  UNL1        0.0224
     12 C         140.1942  138.6726  157.2970 C.ar    1  UNL1        0.0402
     13 C         141.2162  139.4897  158.0305 C.ar    1  UNL1        0.1604
     14 C         142.6070  138.9595  158.2171 C.ar    1  UNL1        0.1679
     15 N         142.9757  137.6124  157.6701 N.ar    1  UNL1       -0.2377
     16 C         144.5018  132.2520  156.0730 C.3     1  UNL1        0.1538
     17 N         143.4937  133.3598  155.9927 N.ar    1  UNL1       -0.2473
     18 C         143.5161  134.6316  156.7877 C.ar    1  UNL1        0.0982
     19 C         142.3225  135.4482  156.3896 C.ar    1  UNL1        0.0573
     20 C         141.5624  134.6811  155.3485 C.ar    1  UNL1        0.1231
     21 N         142.2863  133.3905  155.1032 N.ar    1  UNL1       -0.1675
     22 C         143.6289  139.7765  158.9506 C.2     1  UNL1        0.2635
     23 N         143.9397  141.1721  158.4969 N.am    1  UNL1       -0.3240
     24 O         144.3402  139.1980  160.1377 O.2     1  UNL1       -0.2686
     25 H         143.4729  141.5518  157.7177 H       1  UNL1        0.1453
     26 H         144.6105  141.7083  158.9783 H       1  UNL1        0.1453
     27 C         138.6545  140.2583  165.0664 C.3     1  UNL1        0.1116
     28 C         139.4023  140.6491  166.3067 C.ar    1  UNL1       -0.0129
     29 C         140.2461  141.8893  166.3143 C.ar    1  UNL1       -0.0007
     30 C         140.9938  142.2801  167.5544 C.ar    1  UNL1        0.0369
     31 C         140.8977  141.4309  168.7871 C.ar    1  UNL1        0.1468
     32 C         140.0539  140.1907  168.7795 C.ar    1  UNL1        0.0369
     33 C         139.3062  139.7999  167.5394 C.ar    1  UNL1       -0.0007
     34 O         141.6454  141.8217  170.0274 O.3     1  UNL1       -0.4045
     35 C         143.0944  142.2002  169.9416 C.3     1  UNL1        0.5753
     36 F         144.5433  142.5787  169.8559 F       1  UNL1       -0.1328
     37 F         143.4286  140.8146  169.4742 F       1  UNL1       -0.1328
     38 F         142.7601  143.5858  170.4090 F       1  UNL1       -0.1328
@<TRIPOS>BOND
     1    16    17    1
     2    17    18   ar
     3    18    19   ar
     4    19    10    1
     5    10    11   ar
     6    11    12   ar
     7    12    13   ar
     8    13     9    1
     9     9     1    1
    10     1     2    1
    11     2     3    1
    12     3     4    1
    13     4     5   am
    14     5     6    2
    15     5    27    1
    16    27    28    1
    17    28    29   ar
    18    29    30   ar
    19    30    31   ar
    20    31    34    1
    21    34    35    1
    22    35    36    1
    23    35    37    1
    24    35    38    1
    25    31    32   ar
    26    32    33   ar
    27     4     7    1
    28     7     8    1
    29    13    14   ar
    30    14    22    1
    31    22    23   am
    32    22    24    2
    33    14    15   ar
    34    19    20   ar
    35    20    21   ar
    36    21    17   ar
    37    15    10   ar
    38     8     1    1
    39    33    28   ar
    40    23    25    1
    41    23    26    1
@<TRIPOS>MOLECULE
*****
 38 41 0 0 0
SMALL
GASTEIGER

@<TRIPOS>ATOM
      1 C         140.7693  138.6052  160.8329 C.3     1  UNL1        0.1694
      2 C         140.3275  138.2354  162.2179 C.3     1  UNL1        0.0650
      3 C         141.2890  138.3390  163.3646 C.3     1  UNL1        0.0971
      4 N         142.6923  138.8123  163.1263 N.am    1  UNL1       -0.2790
      5 C         143.6537  138.9159  164.2730 C.2     1  UNL1        0.2301
      6 O         145.0570  139.3893  164.0347 O.2     1  UNL1       -0.2745
      7 C         143.1341  139.1821  161.7414 C.3     1  UNL1        0.0971
      8 C         142.1727  139.0785  160.5947 C.3     1  UNL1        0.0650
      9 O         139.8079  138.5016  159.6863 O.3     1  UNL1       -0.4774
     10 C         138.7651  142.1627  157.2866 C.ar    1  UNL1        0.0847
     11 C         139.7449  141.1647  156.7445 C.ar    1  UNL1        0.0224
     12 C         140.0924  139.9443  157.5444 C.ar    1  UNL1        0.0402
     13 C         139.4603  139.7220  158.8864 C.ar    1  UNL1        0.1604
     14 C         138.4806  140.7201  159.4285 C.ar    1  UNL1        0.1679
     15 N         138.1330  141.9405  158.6286 N.ar    1  UNL1       -0.2377
     16 C         138.9830  146.9642  155.1003 C.3     1  UNL1        0.1538
     17 N         138.5177  145.5902  155.4818 N.ar    1  UNL1       -0.2473
     18 C         139.2407  144.6328  156.3821 C.ar    1  UNL1        0.0982
     19 C         138.4175  143.3832  156.4867 C.ar    1  UNL1        0.0573
     20 C         137.1858  143.5683  155.6509 C.ar    1  UNL1        0.1231
     21 N         137.2476  144.9322  155.0298 N.ar    1  UNL1       -0.1675
     22 C         137.8484  140.4978  160.7705 C.2     1  UNL1        0.2635
     23 N         137.0153  139.2744  161.0137 N.am    1  UNL1       -0.3240
     24 O         138.0494  141.4989  161.8693 O.2     1  UNL1       -0.2686
     25 H         136.8834  138.6174  160.2925 H       1  UNL1        0.1453
     26 H         136.6004  139.1286  161.8945 H       1  UNL1        0.1453
     27 C         143.2119  138.5462  165.6579 C.3     1  UNL1        0.1116
     28 C         142.8999  139.6203  166.6575 C.ar    1  UNL1       -0.0129
     29 C         142.7202  139.2688  168.1046 C.ar    1  UNL1       -0.0007
     30 C         142.4082  140.3428  169.1041 C.ar    1  UNL1        0.0369
     31 C         142.2759  141.7683  168.6565 C.ar    1  UNL1        0.1468
     32 C         142.4556  142.1198  167.2094 C.ar    1  UNL1        0.0369
     33 C         142.7676  141.0458  166.2099 C.ar    1  UNL1       -0.0007
     34 O         141.9639  142.8424  169.6561 O.3     1  UNL1       -0.4045
     35 C         140.5842  142.9505  170.2348 C.3     1  UNL1        0.5753
     36 F         139.2046  143.0586  170.8135 F       1  UNL1       -0.1328
     37 F         141.0264  142.1671  171.4351 F       1  UNL1       -0.1328
     38 F         140.1421  143.7339  169.0345 F       1  UNL1       -0.1328
@<TRIPOS>BOND
     1    16    17    1
     2    17    18   ar
     3    18    19   ar
     4    19    10    1
     5    10    11   ar
     6    11    12   ar
     7    12    13   ar
     8    13     9    1
     9     9     1    1
    10     1     2    1
    11     2     3    1
    12     3     4    1
    13     4     5   am
    14     5     6    2
    15     5    27    1
    16    27    28    1
    17    28    29   ar
    18    29    30   ar
    19    30    31   ar
    20    31    34    1
    21    34    35    1
    22    35    36    1
    23    35    37    1
    24    35    38    1
    25    31    32   ar
    26    32    33   ar
    27     4     7    1
    28     7     8    1
    29    13    14   ar
    30    14    22    1
    31    22    23   am
    32    22    24    2
    33    14    15   ar
    34    19    20   ar
    35    20    21   ar
    36    21    17   ar
    37    15    10   ar
    38     8     1    1
    39    33    28   ar
    40    23    25    1
    41    23    26    1
@<TRIPOS>MOLECULE
*****
 38 41 0 0 0
SMALL
GASTEIGER

@<TRIPOS>ATOM
      1 C         139.3430  142.1643  158.2143 C.3     1  UNL1        0.1694
      2 C         138.2955  142.5226  159.2265 C.3     1  UNL1        0.0650
      3 C         138.4784  142.1358  160.6642 C.3     1  UNL1        0.0971
      4 N         139.7087  141.3906  161.0897 N.am    1  UNL1       -0.2790
      5 C         139.8915  141.0038  162.5274 C.2     1  UNL1        0.2301
      6 O         141.1219  140.2586  162.9530 O.2     1  UNL1       -0.2745
      7 C         140.7561  141.0323  160.0776 C.3     1  UNL1        0.0971
      8 C         140.5733  141.4191  158.6399 C.3     1  UNL1        0.0650
      9 O         139.1601  142.5511  156.7767 O.3     1  UNL1       -0.4774
     10 C         139.1382  146.8946  155.6006 C.ar    1  UNL1        0.0847
     11 C         140.2540  146.3514  156.4431 C.ar    1  UNL1        0.0224
     12 C         140.2613  144.9036  156.8351 C.ar    1  UNL1        0.0402
     13 C         139.1528  143.9990  156.3846 C.ar    1  UNL1        0.1604
     14 C         138.0370  144.5422  155.5421 C.ar    1  UNL1        0.1679
     15 N         138.0297  145.9900  155.1501 N.ar    1  UNL1       -0.2377
     16 C         139.9349  151.3771  152.9260 C.3     1  UNL1        0.1538
     17 N         139.4971  150.4029  153.9791 N.ar    1  UNL1       -0.2473
     18 C         139.7373  148.9223  153.9651 C.ar    1  UNL1        0.0982
     19 C         139.1309  148.3425  155.2085 C.ar    1  UNL1        0.0573
     20 C         138.5159  149.4647  155.9911 C.ar    1  UNL1        0.1231
     21 N         138.7422  150.7381  155.2313 N.ar    1  UNL1       -0.1675
     22 C         136.9285  143.6376  155.0917 C.2     1  UNL1        0.2635
     23 N         136.2647  142.7183  156.0736 N.am    1  UNL1       -0.3240
     24 O         136.4837  143.6523  153.6592 O.2     1  UNL1       -0.2686
     25 H         136.5566  142.7087  157.0138 H       1  UNL1        0.1453
     26 H         135.5372  142.1246  155.7780 H       1  UNL1        0.1453
     27 C         138.8441  141.3622  163.5395 C.3     1  UNL1        0.1116
     28 C         138.9824  140.8970  164.9589 C.ar    1  UNL1       -0.0129
     29 C         139.8763  141.6392  165.9076 C.ar    1  UNL1       -0.0007
     30 C         140.0147  141.1740  167.3269 C.ar    1  UNL1        0.0369
     31 C         139.2592  139.9667  167.7975 C.ar    1  UNL1        0.1468
     32 C         138.3653  139.2245  166.8487 C.ar    1  UNL1        0.0369
     33 C         138.2269  139.6896  165.4294 C.ar    1  UNL1       -0.0007
     34 O         139.3975  139.5015  169.2168 O.3     1  UNL1       -0.4045
     35 C         139.9812  140.4163  170.2524 C.3     1  UNL1        0.5753
     36 F         140.5648  141.3312  171.2880 F       1  UNL1       -0.1328
     37 F         138.7261  141.2376  170.2343 F       1  UNL1       -0.1328
     38 F         141.2362  139.5950  170.2706 F       1  UNL1       -0.1328
@<TRIPOS>BOND
     1    16    17    1
     2    17    18   ar
     3    18    19   ar
     4    19    10    1
     5    10    11   ar
     6    11    12   ar
     7    12    13   ar
     8    13     9    1
     9     9     1    1
    10     1     2    1
    11     2     3    1
    12     3     4    1
    13     4     5   am
    14     5     6    2
    15     5    27    1
    16    27    28    1
    17    28    29   ar
    18    29    30   ar
    19    30    31   ar
    20    31    34    1
    21    34    35    1
    22    35    36    1
    23    35    37    1
    24    35    38    1
    25    31    32   ar
    26    32    33   ar
    27     4     7    1
    28     7     8    1
    29    13    14   ar
    30    14    22    1
    31    22    23   am
    32    22    24    2
    33    14    15   ar
    34    19    20   ar
    35    20    21   ar
    36    21    17   ar
    37    15    10   ar
    38     8     1    1
    39    33    28   ar
    40    23    25    1
    41    23    26    1
@<TRIPOS>MOLECULE
*****
 38 41 0 0 0
SMALL
GASTEIGER

@<TRIPOS>ATOM
      1 C         142.7233  139.4377  158.4104 C.3     1  UNL1        0.1694
      2 C         142.6783  138.4709  159.5564 C.3     1  UNL1        0.0650
      3 C         143.3477  138.8143  160.8541 C.3     1  UNL1        0.0971
      4 N         144.0621  140.1244  161.0058 N.am    1  UNL1       -0.2790
      5 C         144.7315  140.4678  162.3035 C.2     1  UNL1        0.2301
      6 O         145.4460  141.7780  162.4552 O.2     1  UNL1       -0.2745
      7 C         144.1071  141.0913  159.8599 C.3     1  UNL1        0.0971
      8 C         143.4377  140.7479  158.5622 C.3     1  UNL1        0.0650
      9 O         142.0538  139.0944  157.1128 O.3     1  UNL1       -0.4774
     10 C         142.6279  135.0184  155.2943 C.ar    1  UNL1        0.0847
     11 C         143.8146  135.8996  155.5497 C.ar    1  UNL1        0.0224
     12 C         143.6232  137.2582  156.1559 C.ar    1  UNL1        0.0402
     13 C         142.2452  137.7357  156.5066 C.ar    1  UNL1        0.1604
     14 C         141.0585  136.8545  156.2512 C.ar    1  UNL1        0.1679
     15 N         141.2498  135.4959  155.6451 N.ar    1  UNL1       -0.2377
     16 C         142.2858  130.8827  152.0293 C.3     1  UNL1        0.1538
     17 N         142.6619  131.7587  153.1873 N.ar    1  UNL1       -0.2473
     18 C         142.2009  133.1682  153.4129 C.ar    1  UNL1        0.0982
     19 C         142.8192  133.6597  154.6881 C.ar    1  UNL1        0.0573
     20 C         143.6623  132.5540  155.2507 C.ar    1  UNL1        0.1231
     21 N         143.5651  131.3791  154.3233 N.ar    1  UNL1       -0.1675
     22 C         139.6804  137.3320  156.6020 C.2     1  UNL1        0.2635
     23 N         139.4750  138.2204  157.7929 N.am    1  UNL1       -0.3240
     24 O         138.5078  136.9210  155.7617 O.2     1  UNL1       -0.2686
     25 H         140.2446  138.4901  158.3444 H       1  UNL1        0.1453
     26 H         138.5705  138.5338  158.0231 H       1  UNL1        0.1453
     27 C         144.6866  139.5009  163.4494 C.3     1  UNL1        0.1116
     28 C         143.9083  139.8396  164.6863 C.ar    1  UNL1       -0.0129
     29 C         143.6354  141.2736  165.0315 C.ar    1  UNL1       -0.0007
     30 C         142.8572  141.6122  166.2683 C.ar    1  UNL1        0.0369
     31 C         142.3519  140.5169  167.1598 C.ar    1  UNL1        0.1468
     32 C         142.6248  139.0829  166.8146 C.ar    1  UNL1        0.0369
     33 C         143.4030  138.7443  165.5778 C.ar    1  UNL1       -0.0007
     34 O         141.5737  140.8556  168.3967 O.3     1  UNL1       -0.4045
     35 C         140.1719  140.3483  168.5631 C.3     1  UNL1        0.5753
     36 F         138.7701  139.8410  168.7296 F       1  UNL1       -0.1328
     37 F         140.6106  139.5204  169.7345 F       1  UNL1       -0.1328
     38 F         139.7332  141.1763  167.3918 F       1  UNL1       -0.1328
@<TRIPOS>BOND
     1    16    17    1
     2    17    18   ar
     3    18    19   ar
     4    19    10    1
     5    10    11   ar
     6    11    12   ar
     7    12    13   ar
     8    13     9    1
     9     9     1    1
    10     1     2    1
    11     2     3    1
    12     3     4    1
    13     4     5   am
    14     5     6    2
    15     5    27    1
    16    27    28    1
    17    28    29   ar
    18    29    30   ar
    19    30    31   ar
    20    31    34    1
    21    34    35    1
    22    35    36    1
    23    35    37    1
    24    35    38    1
    25    31    32   ar
    26    32    33   ar
    27     4     7    1
    28     7     8    1
    29    13    14   ar
    30    14    22    1
    31    22    23   am
    32    22    24    2
    33    14    15   ar
    34    19    20   ar
    35    20    21   ar
    36    21    17   ar
    37    15    10   ar
    38     8     1    1
    39    33    28   ar
    40    23    25    1
    41    23    26    1
