@<TRIPOS>MOLECULE
*****
 44 47 0 0 0
SMALL
GASTEIGER

@<TRIPOS>ATOM
      1 C         141.6683  144.6311  162.2338 C.3     1  UNL1        0.0370
      2 C         141.0660  145.1372  160.9565 C.3     1  UNL1        0.0204
      3 C         141.7305  144.4242  159.8163 C.3     1  UNL1        0.0722
      4 N         142.7433  143.4774  160.3888 N.3     1  UNL1       -0.2726
      5 C         142.7049  143.6053  161.8829 C.3     1  UNL1        0.0738
      6 C         141.2987  145.0732  163.6187 C.3     1  UNL1        0.0911
      7 O         138.8819  143.2964  163.6581 O.2     1  UNL1       -0.2701
      8 C         139.9233  143.1698  164.7302 C.2     1  UNL1        0.2458
      9 N         141.1317  144.0583  164.7105 N.am    1  UNL1       -0.3008
     10 H         141.8153  143.9752  165.4141 H       1  UNL1        0.1497
     11 C         139.7563  142.1549  165.8220 C.ar    1  UNL1        0.0533
     12 C         140.1529  142.4940  167.2283 C.ar    1  UNL1        0.0083
     13 C         139.9860  141.4791  168.3201 C.ar    1  UNL1        0.0715
     14 C         139.4223  140.1250  168.0056 C.ar    1  UNL1        0.0077
     15 C         139.0258  139.7859  166.5992 C.ar    1  UNL1        0.0715
     16 C         139.1928  140.8009  165.5074 C.ar    1  UNL1        0.0083
     17 C         140.3825  141.8182  169.7264 C.3     1  UNL1        0.4186
     18 F         140.7792  142.1572  171.1327 F       1  UNL1       -0.1659
     19 F         139.9507  143.2376  169.5059 F       1  UNL1       -0.1659
     20 F         140.8145  140.3987  169.9469 F       1  UNL1       -0.1659
     21 C         138.4622  138.4319  166.2847 C.3     1  UNL1        0.4186
     22 F         137.8986  137.0778  165.9702 F       1  UNL1       -0.1659
     23 F         139.2847  138.3806  165.0314 F       1  UNL1       -0.1659
     24 F         137.6396  138.4831  167.5380 F       1  UNL1       -0.1659
     25 C         143.6376  142.5633  159.6049 C.3     1  UNL1        0.0721
     26 C         143.4792  141.0763  159.7230 C.3     1  UNL1        0.0173
     27 C         144.1778  140.3326  160.8225 C.3     1  UNL1        0.0014
     28 C         144.0530  138.8408  160.9158 C.3     1  UNL1        0.0007
     29 C         143.4408  138.2140  162.1334 C.3     1  UNL1        0.0087
     30 C         142.3512  138.9280  162.8770 C.3     1  UNL1        0.0446
     31 C         141.0112  139.1289  162.2334 C.ar    1  UNL1       -0.0183
     32 C         140.1806  137.9420  161.8441 C.ar    1  UNL1       -0.0017
     33 C         138.8407  138.1430  161.2005 C.ar    1  UNL1        0.0293
     34 C         138.3313  139.5308  160.9464 C.ar    1  UNL1        0.1401
     35 F         136.9913  139.7317  160.3028 F       1  UNL1       -0.2042
     36 C         139.1618  140.7176  161.3357 C.ar    1  UNL1        0.0293
     37 C         140.5018  140.5166  161.9792 C.ar    1  UNL1       -0.0017
     38 C         142.6014  139.4410  164.2641 C.ar    1  UNL1       -0.0183
     39 C         142.4163  138.5337  165.4441 C.ar    1  UNL1       -0.0017
     40 C         142.6665  139.0467  166.8313 C.ar    1  UNL1        0.0293
     41 C         143.1019  140.4671  167.0384 C.ar    1  UNL1        0.1401
     42 F         143.3522  140.9801  168.4256 F       1  UNL1       -0.2042
     43 C         143.2871  141.3745  165.8584 C.ar    1  UNL1        0.0293
     44 C         143.0369  140.8614  164.4712 C.ar    1  UNL1       -0.0017
@<TRIPOS>BOND
     1     7     8    2
     2     8     9   am
     3     9     6    1
     4     6     1    1
     5     1     2    1
     6     2     3    1
     7     3     4    1
     8     4    25    1
     9    25    26    1
    10    26    27    1
    11    27    28    1
    12    28    29    1
    13    29    30    1
    14    30    31    1
    15    31    32   ar
    16    32    33   ar
    17    33    34   ar
    18    34    35    1
    19    34    36   ar
    20    36    37   ar
    21    30    38    1
    22    38    39   ar
    23    39    40   ar
    24    40    41   ar
    25    41    42    1
    26    41    43   ar
    27    43    44   ar
    28     4     5    1
    29     8    11    1
    30    11    12   ar
    31    12    13   ar
    32    13    17    1
    33    17    18    1
    34    17    19    1
    35    17    20    1
    36    13    14   ar
    37    14    15   ar
    38    15    21    1
    39    21    22    1
    40    21    23    1
    41    21    24    1
    42    15    16   ar
    43     5     1    1
    44    16    11   ar
    45    37    31   ar
    46    44    38   ar
    47     9    10    1
@<TRIPOS>MOLECULE
*****
 44 47 0 0 0
SMALL
GASTEIGER

@<TRIPOS>ATOM
      1 C         141.3486  144.7395  162.3151 C.3     1  UNL1        0.0370
      2 C         140.7632  145.3078  161.0563 C.3     1  UNL1        0.0204
      3 C         141.4739  144.6841  159.8919 C.3     1  UNL1        0.0722
      4 N         142.4985  143.7304  160.4309 N.3     1  UNL1       -0.2726
      5 C         142.4211  143.7647  161.9286 C.3     1  UNL1        0.0738
      6 C         140.9343  145.0855  163.7146 C.3     1  UNL1        0.0911
      7 O         138.5501  143.2667  163.8011 O.2     1  UNL1       -0.2701
      8 C         139.6555  143.1022  164.8015 C.2     1  UNL1        0.2458
      9 N         140.8477  144.0115  164.7583 N.am    1  UNL1       -0.3008
     10 H         141.5732  143.9035  165.4149 H       1  UNL1        0.1497
     11 C         139.5689  142.0282  165.8451 C.ar    1  UNL1        0.0533
     12 C         139.0470  140.6696  165.4817 C.ar    1  UNL1        0.0083
     13 C         138.9604  139.5957  166.5254 C.ar    1  UNL1        0.0715
     14 C         139.3955  139.8803  167.9324 C.ar    1  UNL1        0.0077
     15 C         139.9173  141.2389  168.2958 C.ar    1  UNL1        0.0715
     16 C         140.0040  142.3128  167.2521 C.ar    1  UNL1        0.0083
     17 C         138.4386  138.2372  166.1620 C.3     1  UNL1        0.4186
     18 F         137.9168  136.8786  165.7985 F       1  UNL1       -0.1659
     19 F         137.5978  138.2278  167.4041 F       1  UNL1       -0.1659
     20 F         139.2794  138.2465  164.9197 F       1  UNL1       -0.1659
     21 C         140.3525  141.5235  169.7027 C.3     1  UNL1        0.4186
     22 F         140.7876  141.8081  171.1097 F       1  UNL1       -0.1659
     23 F         140.1585  140.0784  170.0550 F       1  UNL1       -0.1659
     24 F         140.5465  142.9686  169.3504 F       1  UNL1       -0.1659
     25 C         143.4359  142.8900  159.6155 C.3     1  UNL1        0.0721
     26 C         143.4192  141.3966  159.7558 C.3     1  UNL1        0.0173
     27 C         143.9753  140.7530  160.9913 C.3     1  UNL1        0.0014
     28 C         144.1677  139.2663  161.0407 C.3     1  UNL1        0.0007
     29 C         143.4394  138.4494  162.0665 C.3     1  UNL1        0.0087
     30 C         142.3239  139.0630  162.8598 C.3     1  UNL1        0.0446
     31 C         140.9615  139.2090  162.2494 C.ar    1  UNL1       -0.0183
     32 C         140.1886  137.9905  161.8398 C.ar    1  UNL1       -0.0017
     33 C         138.8263  138.1366  161.2294 C.ar    1  UNL1        0.0293
     34 C         138.2368  139.5013  161.0285 C.ar    1  UNL1        0.1401
     35 F         136.8744  139.6473  160.4181 F       1  UNL1       -0.2042
     36 C         139.0098  140.7198  161.4381 C.ar    1  UNL1        0.0293
     37 C         140.3721  140.5737  162.0485 C.ar    1  UNL1       -0.0017
     38 C         142.5708  139.5305  164.2635 C.ar    1  UNL1       -0.0183
     39 C         142.9602  140.9558  164.5218 C.ar    1  UNL1       -0.0017
     40 C         143.2071  141.4234  165.9255 C.ar    1  UNL1        0.0293
     41 C         143.0647  140.4655  167.0710 C.ar    1  UNL1        0.1401
     42 F         143.3116  140.9330  168.4747 F       1  UNL1       -0.2042
     43 C         142.6753  139.0401  166.8128 C.ar    1  UNL1        0.0293
     44 C         142.4284  138.5726  165.4091 C.ar    1  UNL1       -0.0017
@<TRIPOS>BOND
     1     7     8    2
     2     8     9   am
     3     9     6    1
     4     6     1    1
     5     1     2    1
     6     2     3    1
     7     3     4    1
     8     4    25    1
     9    25    26    1
    10    26    27    1
    11    27    28    1
    12    28    29    1
    13    29    30    1
    14    30    31    1
    15    31    32   ar
    16    32    33   ar
    17    33    34   ar
    18    34    35    1
    19    34    36   ar
    20    36    37   ar
    21    30    38    1
    22    38    39   ar
    23    39    40   ar
    24    40    41   ar
    25    41    42    1
    26    41    43   ar
    27    43    44   ar
    28     4     5    1
    29     8    11    1
    30    11    12   ar
    31    12    13   ar
    32    13    17    1
    33    17    18    1
    34    17    19    1
    35    17    20    1
    36    13    14   ar
    37    14    15   ar
    38    15    21    1
    39    21    22    1
    40    21    23    1
    41    21    24    1
    42    15    16   ar
    43     5     1    1
    44    16    11   ar
    45    37    31   ar
    46    44    38   ar
    47     9    10    1
@<TRIPOS>MOLECULE
*****
 44 47 0 0 0
SMALL
GASTEIGER

@<TRIPOS>ATOM
      1 C         139.7939  144.6123  161.8317 C.3     1  UNL1        0.0370
      2 C         140.6207  145.2580  160.7594 C.3     1  UNL1        0.0204
      3 C         140.2827  144.6003  159.4543 C.3     1  UNL1        0.0722
      4 N         139.2471  143.5482  159.7199 N.3     1  UNL1       -0.2726
      5 C         138.9451  143.5556  161.1892 C.3     1  UNL1        0.0738
      6 C         139.8128  144.9619  163.2902 C.3     1  UNL1        0.0911
      7 O         142.4394  143.9824  164.3586 O.2     1  UNL1       -0.2701
      8 C         141.1572  143.3838  164.8562 C.2     1  UNL1        0.2458
      9 N         139.8439  143.8736  164.3220 N.am    1  UNL1       -0.3008
     10 H         139.0023  143.4807  164.6486 H       1  UNL1        0.1497
     11 C         141.1882  142.2955  165.8880 C.ar    1  UNL1        0.0533
     12 C         140.3563  142.4159  167.1304 C.ar    1  UNL1        0.0083
     13 C         140.3873  141.3276  168.1622 C.ar    1  UNL1        0.0715
     14 C         141.2503  140.1188  167.9516 C.ar    1  UNL1        0.0077
     15 C         142.0822  139.9985  166.7093 C.ar    1  UNL1        0.0715
     16 C         142.0512  141.0868  165.6775 C.ar    1  UNL1        0.0083
     17 C         139.5555  141.4480  169.4045 C.3     1  UNL1        0.4186
     18 F         138.7236  141.5685  170.6469 F       1  UNL1       -0.1659
     19 F         139.2261  139.9868  169.3257 F       1  UNL1       -0.1659
     20 F         139.8848  142.9093  169.4834 F       1  UNL1       -0.1659
     21 C         142.9452  138.7898  166.4987 C.3     1  UNL1        0.4186
     22 F         143.8081  137.5811  166.2882 F       1  UNL1       -0.1659
     23 F         142.5424  138.7539  165.0543 F       1  UNL1       -0.1659
     24 F         143.3479  138.8257  167.9432 F       1  UNL1       -0.1659
     25 C         138.6232  142.6469  158.6961 C.3     1  UNL1        0.0721
     26 C         139.1373  141.2495  158.5140 C.3     1  UNL1        0.0173
     27 C         138.7017  140.1621  159.4507 C.3     1  UNL1        0.0014
     28 C         139.5473  138.9348  159.6201 C.3     1  UNL1        0.0007
     29 C         139.6205  138.2527  160.9541 C.3     1  UNL1        0.0087
     30 C         140.2195  138.9664  162.1296 C.3     1  UNL1        0.0446
     31 C         141.5011  139.7295  161.9703 C.ar    1  UNL1       -0.0183
     32 C         141.4694  141.2164  161.7756 C.ar    1  UNL1       -0.0017
     33 C         142.7509  141.9794  161.6163 C.ar    1  UNL1        0.0293
     34 C         144.0642  141.2555  161.6516 C.ar    1  UNL1        0.1401
     35 F         145.3457  142.0186  161.4923 F       1  UNL1       -0.2042
     36 C         144.0959  139.7685  161.8463 C.ar    1  UNL1        0.0293
     37 C         142.8143  139.0055  162.0056 C.ar    1  UNL1       -0.0017
     38 C         139.5370  138.9171  163.4644 C.ar    1  UNL1       -0.0183
     39 C         138.8698  140.1441  164.0114 C.ar    1  UNL1       -0.0017
     40 C         138.1872  140.0948  165.3462 C.ar    1  UNL1        0.0293
     41 C         138.1719  138.8185  166.1340 C.ar    1  UNL1        0.1401
     42 F         137.4894  138.7692  167.4688 F       1  UNL1       -0.2042
     43 C         138.8391  137.5914  165.5870 C.ar    1  UNL1        0.0293
     44 C         139.5216  137.6407  164.2522 C.ar    1  UNL1       -0.0017
@<TRIPOS>BOND
     1     7     8    2
     2     8     9   am
     3     9     6    1
     4     6     1    1
     5     1     2    1
     6     2     3    1
     7     3     4    1
     8     4    25    1
     9    25    26    1
    10    26    27    1
    11    27    28    1
    12    28    29    1
    13    29    30    1
    14    30    31    1
    15    31    32   ar
    16    32    33   ar
    17    33    34   ar
    18    34    35    1
    19    34    36   ar
    20    36    37   ar
    21    30    38    1
    22    38    39   ar
    23    39    40   ar
    24    40    41   ar
    25    41    42    1
    26    41    43   ar
    27    43    44   ar
    28     4     5    1
    29     8    11    1
    30    11    12   ar
    31    12    13   ar
    32    13    17    1
    33    17    18    1
    34    17    19    1
    35    17    20    1
    36    13    14   ar
    37    14    15   ar
    38    15    21    1
    39    21    22    1
    40    21    23    1
    41    21    24    1
    42    15    16   ar
    43     5     1    1
    44    16    11   ar
    45    37    31   ar
    46    44    38   ar
    47     9    10    1
@<TRIPOS>MOLECULE
*****
 44 47 0 0 0
SMALL
GASTEIGER

@<TRIPOS>ATOM
      1 C         141.8396  144.5754  161.9154 C.3     1  UNL1        0.0370
      2 C         141.0494  144.9839  160.7075 C.3     1  UNL1        0.0204
      3 C         141.5992  144.2463  159.5227 C.3     1  UNL1        0.0722
      4 N         142.7291  143.3819  159.9983 N.3     1  UNL1       -0.2726
      5 C         142.8776  143.5853  161.4771 C.3     1  UNL1        0.0738
      6 C         141.6286  145.0701  163.3156 C.3     1  UNL1        0.0911
      7 O         139.0162  143.6161  163.5629 O.2     1  UNL1       -0.2701
      8 C         140.1114  143.3648  164.5566 C.2     1  UNL1        0.2458
      9 N         141.4176  144.0918  164.4329 N.am    1  UNL1       -0.3008
     10 H         142.1365  143.9268  165.0851 H       1  UNL1        0.1497
     11 C         139.9005  142.3865  165.6739 C.ar    1  UNL1        0.0533
     12 C         140.2263  142.7777  167.0849 C.ar    1  UNL1        0.0083
     13 C         140.0153  141.7994  168.2022 C.ar    1  UNL1        0.0715
     14 C         139.4785  140.4298  167.9085 C.ar    1  UNL1        0.0077
     15 C         139.1527  140.0386  166.4976 C.ar    1  UNL1        0.0715
     16 C         139.3636  141.0169  165.3803 C.ar    1  UNL1        0.0083
     17 C         140.3412  142.1906  169.6131 C.3     1  UNL1        0.4186
     18 F         140.6670  142.5818  171.0241 F       1  UNL1       -0.1659
     19 F         141.4435  143.0765  169.1130 F       1  UNL1       -0.1659
     20 F         139.2388  141.3047  170.1133 F       1  UNL1       -0.1659
     21 C         138.6158  138.6691  166.2039 C.3     1  UNL1        0.4186
     22 F         138.0790  137.2996  165.9103 F       1  UNL1       -0.1659
     23 F         139.2164  138.7281  164.8307 F       1  UNL1       -0.1659
     24 F         138.0152  138.6101  167.5772 F       1  UNL1       -0.1659
     25 C         143.5639  142.4736  159.1451 C.3     1  UNL1        0.0721
     26 C         143.4131  140.9858  159.2628 C.3     1  UNL1        0.0173
     27 C         144.2307  140.2261  160.2648 C.3     1  UNL1        0.0014
     28 C         143.8259  138.8385  160.6657 C.3     1  UNL1        0.0007
     29 C         143.6407  138.5006  162.1154 C.3     1  UNL1        0.0087
     30 C         142.4949  139.0909  162.8826 C.3     1  UNL1        0.0446
     31 C         142.6903  139.5284  164.3041 C.ar    1  UNL1       -0.0183
     32 C         143.1231  140.9330  164.6037 C.ar    1  UNL1       -0.0017
     33 C         143.3185  141.3705  166.0251 C.ar    1  UNL1        0.0293
     34 C         143.0810  140.4034  167.1469 C.ar    1  UNL1        0.1401
     35 F         143.2764  140.8409  168.5683 F       1  UNL1       -0.2042
     36 C         142.6482  138.9988  166.8472 C.ar    1  UNL1        0.0293
     37 C         142.4528  138.5613  165.4258 C.ar    1  UNL1       -0.0017
     38 C         141.1537  139.2437  162.2285 C.ar    1  UNL1       -0.0183
     39 C         140.3398  138.0290  161.8938 C.ar    1  UNL1       -0.0017
     40 C         138.9986  138.1818  161.2397 C.ar    1  UNL1        0.0293
     41 C         138.4713  139.5493  160.9203 C.ar    1  UNL1        0.1401
     42 F         137.1302  139.7020  160.2661 F       1  UNL1       -0.2042
     43 C         139.2853  140.7640  161.2550 C.ar    1  UNL1        0.0293
     44 C         140.6265  140.6112  161.9091 C.ar    1  UNL1       -0.0017
@<TRIPOS>BOND
     1     7     8    2
     2     8     9   am
     3     9     6    1
     4     6     1    1
     5     1     2    1
     6     2     3    1
     7     3     4    1
     8     4    25    1
     9    25    26    1
    10    26    27    1
    11    27    28    1
    12    28    29    1
    13    29    30    1
    14    30    31    1
    15    31    32   ar
    16    32    33   ar
    17    33    34   ar
    18    34    35    1
    19    34    36   ar
    20    36    37   ar
    21    30    38    1
    22    38    39   ar
    23    39    40   ar
    24    40    41   ar
    25    41    42    1
    26    41    43   ar
    27    43    44   ar
    28     4     5    1
    29     8    11    1
    30    11    12   ar
    31    12    13   ar
    32    13    17    1
    33    17    18    1
    34    17    19    1
    35    17    20    1
    36    13    14   ar
    37    14    15   ar
    38    15    21    1
    39    21    22    1
    40    21    23    1
    41    21    24    1
    42    15    16   ar
    43     5     1    1
    44    16    11   ar
    45    37    31   ar
    46    44    38   ar
    47     9    10    1
@<TRIPOS>MOLECULE
*****
 44 47 0 0 0
SMALL
GASTEIGER

@<TRIPOS>ATOM
      1 C         139.6170  144.3057  161.6461 C.3     1  UNL1        0.0370
      2 C         140.4889  144.8350  160.5463 C.3     1  UNL1        0.0204
      3 C         140.0658  144.1816  159.2641 C.3     1  UNL1        0.0722
      4 N         138.9324  143.2484  159.5715 N.3     1  UNL1       -0.2726
      5 C         138.6550  143.3251  161.0436 C.3     1  UNL1        0.0738
      6 C         139.6935  144.6896  163.0941 C.3     1  UNL1        0.0911
      7 O         142.3135  144.0469  164.4066 O.2     1  UNL1       -0.2701
      8 C         141.0727  143.3045  164.8056 C.2     1  UNL1        0.2458
      9 N         139.7627  143.6259  164.1494 N.am    1  UNL1       -0.3008
     10 H         138.9483  143.1386  164.4113 H       1  UNL1        0.1497
     11 C         141.1419  142.2407  165.8609 C.ar    1  UNL1        0.0533
     12 C         140.3034  142.3572  167.0994 C.ar    1  UNL1        0.0083
     13 C         140.3726  141.2934  168.1547 C.ar    1  UNL1        0.0715
     14 C         141.2802  140.1132  167.9716 C.ar    1  UNL1        0.0077
     15 C         142.1186  139.9968  166.7332 C.ar    1  UNL1        0.0715
     16 C         142.0494  141.0605  165.6779 C.ar    1  UNL1        0.0083
     17 C         139.5342  141.4099  169.3930 C.3     1  UNL1        0.4186
     18 F         138.6958  141.5263  170.6313 F       1  UNL1       -0.1659
     19 F         139.8793  142.8664  169.4897 F       1  UNL1       -0.1659
     20 F         139.1891  139.9533  169.2963 F       1  UNL1       -0.1659
     21 C         143.0261  138.8166  166.5501 C.3     1  UNL1        0.4186
     22 F         143.9336  137.6364  166.3670 F       1  UNL1       -0.1659
     23 F         143.0028  138.5692  168.0294 F       1  UNL1       -0.1659
     24 F         143.0494  139.0640  165.0709 F       1  UNL1       -0.1659
     25 C         138.2043  142.3893  158.5807 C.3     1  UNL1        0.0721
     26 C         138.6508  140.9774  158.3411 C.3     1  UNL1        0.0173
     27 C         139.5424  140.2940  159.3350 C.3     1  UNL1        0.0014
     28 C         139.1481  138.9643  159.9062 C.3     1  UNL1        0.0007
     29 C         140.0394  138.2811  160.9008 C.3     1  UNL1        0.0087
     30 C         140.5529  139.0365  162.0906 C.3     1  UNL1        0.0446
     31 C         139.7984  138.9978  163.3864 C.ar    1  UNL1       -0.0183
     32 C         139.9562  137.8277  164.3115 C.ar    1  UNL1       -0.0017
     33 C         139.2016  137.7891  165.6073 C.ar    1  UNL1        0.0293
     34 C         138.2893  138.9205  165.9780 C.ar    1  UNL1        0.1401
     35 F         137.5347  138.8819  167.2739 F       1  UNL1       -0.2042
     36 C         138.1315  140.0906  165.0529 C.ar    1  UNL1        0.0293
     37 C         138.8860  140.1293  163.7571 C.ar    1  UNL1       -0.0017
     38 C         141.8211  139.8306  161.9846 C.ar    1  UNL1       -0.0183
     39 C         143.1465  139.1285  161.9683 C.ar    1  UNL1       -0.0017
     40 C         144.4146  139.9225  161.8623 C.ar    1  UNL1        0.0293
     41 C         144.3574  141.4187  161.7726 C.ar    1  UNL1        0.1401
     42 F         145.6256  142.2128  161.6666 F       1  UNL1       -0.2042
     43 C         143.0320  142.1209  161.7888 C.ar    1  UNL1        0.0293
     44 C         141.7638  141.3268  161.8948 C.ar    1  UNL1       -0.0017
@<TRIPOS>BOND
     1     7     8    2
     2     8     9   am
     3     9     6    1
     4     6     1    1
     5     1     2    1
     6     2     3    1
     7     3     4    1
     8     4    25    1
     9    25    26    1
    10    26    27    1
    11    27    28    1
    12    28    29    1
    13    29    30    1
    14    30    31    1
    15    31    32   ar
    16    32    33   ar
    17    33    34   ar
    18    34    35    1
    19    34    36   ar
    20    36    37   ar
    21    30    38    1
    22    38    39   ar
    23    39    40   ar
    24    40    41   ar
    25    41    42    1
    26    41    43   ar
    27    43    44   ar
    28     4     5    1
    29     8    11    1
    30    11    12   ar
    31    12    13   ar
    32    13    17    1
    33    17    18    1
    34    17    19    1
    35    17    20    1
    36    13    14   ar
    37    14    15   ar
    38    15    21    1
    39    21    22    1
    40    21    23    1
    41    21    24    1
    42    15    16   ar
    43     5     1    1
    44    16    11   ar
    45    37    31   ar
    46    44    38   ar
    47     9    10    1
@<TRIPOS>MOLECULE
*****
 44 47 0 0 0
SMALL
GASTEIGER

@<TRIPOS>ATOM
      1 C         143.1413  138.3487  159.8883 C.3     1  UNL1        0.0370
      2 C         142.6672  137.7782  158.5845 C.3     1  UNL1        0.0204
      3 C         143.0079  138.7561  157.4994 C.3     1  UNL1        0.0722
      4 N         143.6927  139.9310  158.1324 N.3     1  UNL1       -0.2726
      5 C         143.7751  139.6792  159.6089 C.3     1  UNL1        0.0738
      6 C         143.0055  137.7022  161.2350 C.3     1  UNL1        0.0911
      7 O         143.3871  140.0856  163.0165 O.2     1  UNL1       -0.2701
      8 C         142.0981  139.3194  163.0546 C.2     1  UNL1        0.2458
      9 N         141.9073  138.1277  162.1639 N.am    1  UNL1       -0.3008
     10 H         141.0613  137.6248  162.1890 H       1  UNL1        0.1497
     11 C         140.9999  139.7449  163.9836 C.ar    1  UNL1        0.0533
     12 C         140.7660  141.2024  164.2505 C.ar    1  UNL1        0.0083
     13 C         139.6678  141.6280  165.1794 C.ar    1  UNL1        0.0715
     14 C         138.8034  140.5960  165.8414 C.ar    1  UNL1        0.0077
     15 C         139.0374  139.1386  165.5745 C.ar    1  UNL1        0.0715
     16 C         140.1356  138.7131  164.6455 C.ar    1  UNL1        0.0083
     17 C         139.4340  143.0853  165.4464 C.3     1  UNL1        0.4186
     18 F         139.2000  144.5427  165.7133 F       1  UNL1       -0.1659
     19 F         140.8456  143.2225  165.9346 F       1  UNL1       -0.1659
     20 F         138.0222  142.9482  164.9581 F       1  UNL1       -0.1659
     21 C         138.1730  138.1068  166.2364 C.3     1  UNL1        0.4186
     22 F         137.3087  137.0749  166.8984 F       1  UNL1       -0.1659
     23 F         137.7605  139.1143  167.2682 F       1  UNL1       -0.1659
     24 F         138.5856  137.0992  165.2046 F       1  UNL1       -0.1659
     25 C         144.2050  141.1446  157.4151 C.3     1  UNL1        0.0721
     26 C         143.5145  142.4650  157.5875 C.3     1  UNL1        0.0173
     27 C         142.0413  142.5103  157.8657 C.3     1  UNL1        0.0014
     28 C         141.3866  143.8095  158.2307 C.3     1  UNL1        0.0007
     29 C         140.2370  143.8255  159.1943 C.3     1  UNL1        0.0087
     30 C         140.3753  143.1725  160.5376 C.3     1  UNL1        0.0446
     31 C         139.5860  141.9373  160.8559 C.ar    1  UNL1       -0.0183
     32 C         138.3917  142.0224  161.7595 C.ar    1  UNL1       -0.0017
     33 C         137.6026  140.7872  162.0777 C.ar    1  UNL1        0.0293
     34 C         138.0076  139.4668  161.4924 C.ar    1  UNL1        0.1401
     35 F         137.2184  138.2315  161.8107 F       1  UNL1       -0.2042
     36 C         139.2019  139.3817  160.5889 C.ar    1  UNL1        0.0293
     37 C         139.9911  140.6169  160.2706 C.ar    1  UNL1       -0.0017
     38 C         141.3027  143.7548  161.5627 C.ar    1  UNL1       -0.0183
     39 C         142.7239  143.2816  161.6431 C.ar    1  UNL1       -0.0017
     40 C         143.6513  143.8639  162.6681 C.ar    1  UNL1        0.0293
     41 C         143.1577  144.9193  163.6128 C.ar    1  UNL1        0.1401
     42 F         144.0852  145.5016  164.6378 F       1  UNL1       -0.2042
     43 C         141.7365  145.3925  163.5324 C.ar    1  UNL1        0.0293
     44 C         140.8090  144.8103  162.5073 C.ar    1  UNL1       -0.0017
@<TRIPOS>BOND
     1     7     8    2
     2     8     9   am
     3     9     6    1
     4     6     1    1
     5     1     2    1
     6     2     3    1
     7     3     4    1
     8     4    25    1
     9    25    26    1
    10    26    27    1
    11    27    28    1
    12    28    29    1
    13    29    30    1
    14    30    31    1
    15    31    32   ar
    16    32    33   ar
    17    33    34   ar
    18    34    35    1
    19    34    36   ar
    20    36    37   ar
    21    30    38    1
    22    38    39   ar
    23    39    40   ar
    24    40    41   ar
    25    41    42    1
    26    41    43   ar
    27    43    44   ar
    28     4     5    1
    29     8    11    1
    30    11    12   ar
    31    12    13   ar
    32    13    17    1
    33    17    18    1
    34    17    19    1
    35    17    20    1
    36    13    14   ar
    37    14    15   ar
    38    15    21    1
    39    21    22    1
    40    21    23    1
    41    21    24    1
    42    15    16   ar
    43     5     1    1
    44    16    11   ar
    45    37    31   ar
    46    44    38   ar
    47     9    10    1
@<TRIPOS>MOLECULE
*****
 44 47 0 0 0
SMALL
GASTEIGER

@<TRIPOS>ATOM
      1 C         139.7188  144.7327  161.6930 C.3     1  UNL1        0.0370
      2 C         140.4528  145.5165  160.6456 C.3     1  UNL1        0.0204
      3 C         140.2775  144.8130  159.3325 C.3     1  UNL1        0.0722
      4 N         139.4352  143.5944  159.5683 N.3     1  UNL1       -0.2726
      5 C         139.0899  143.5449  161.0272 C.3     1  UNL1        0.0738
      6 C         139.6294  145.0766  163.1504 C.3     1  UNL1        0.0911
      7 O         142.2742  144.2459  164.2970 O.2     1  UNL1       -0.2701
      8 C         141.0138  143.5746  164.7558 C.2     1  UNL1        0.2458
      9 N         139.6914  143.9899  164.1825 N.am    1  UNL1       -0.3008
     10 H         138.8641  143.5492  164.4836 H       1  UNL1        0.1497
     11 C         141.0757  142.4879  165.7880 C.ar    1  UNL1        0.0533
     12 C         141.8648  141.2410  165.5179 C.ar    1  UNL1        0.0083
     13 C         141.9268  140.1543  166.5500 C.ar    1  UNL1        0.0715
     14 C         141.1996  140.3145  167.8523 C.ar    1  UNL1        0.0077
     15 C         140.4106  141.5613  168.1223 C.ar    1  UNL1        0.0715
     16 C         140.3486  142.6480  167.0902 C.ar    1  UNL1        0.0083
     17 C         142.7158  138.9076  166.2800 C.3     1  UNL1        0.4186
     18 F         143.5049  137.6609  166.0098 F       1  UNL1       -0.1659
     19 F         143.0341  138.7924  167.7413 F       1  UNL1       -0.1659
     20 F         142.3976  139.0228  164.8186 F       1  UNL1       -0.1659
     21 C         139.6835  141.7214  169.4245 C.3     1  UNL1        0.4186
     22 F         138.9564  141.8815  170.7266 F       1  UNL1       -0.1659
     23 F         140.1432  143.1468  169.5059 F       1  UNL1       -0.1659
     24 F         139.2238  140.2959  169.3430 F       1  UNL1       -0.1659
     25 C         139.0124  142.6001  158.5279 C.3     1  UNL1        0.0721
     26 C         139.7721  141.3170  158.3641 C.3     1  UNL1        0.0173
     27 C         139.0849  140.0038  158.5944 C.3     1  UNL1        0.0014
     28 C         138.4653  139.7052  159.9274 C.3     1  UNL1        0.0007
     29 C         139.1238  138.7315  160.8593 C.3     1  UNL1        0.0087
     30 C         139.8987  139.2322  162.0420 C.3     1  UNL1        0.0446
     31 C         141.2403  139.8730  161.8430 C.ar    1  UNL1       -0.0183
     32 C         141.3643  141.3678  161.8395 C.ar    1  UNL1       -0.0017
     33 C         142.7059  142.0086  161.6405 C.ar    1  UNL1        0.0293
     34 C         143.9234  141.1546  161.4449 C.ar    1  UNL1        0.1401
     35 F         145.2650  141.7954  161.2459 F       1  UNL1       -0.2042
     36 C         143.7994  139.6597  161.4484 C.ar    1  UNL1        0.0293
     37 C         142.4579  139.0190  161.6474 C.ar    1  UNL1       -0.0017
     38 C         139.3322  139.0920  163.4238 C.ar    1  UNL1       -0.0183
     39 C         138.6798  140.2671  164.0897 C.ar    1  UNL1       -0.0017
     40 C         138.1132  140.1269  165.4715 C.ar    1  UNL1        0.0293
     41 C         138.1990  138.8116  166.1874 C.ar    1  UNL1        0.1401
     42 F         137.6324  138.6714  167.5692 F       1  UNL1       -0.2042
     43 C         138.8514  137.6364  165.5215 C.ar    1  UNL1        0.0293
     44 C         139.4180  137.7766  164.1397 C.ar    1  UNL1       -0.0017
@<TRIPOS>BOND
     1     7     8    2
     2     8     9   am
     3     9     6    1
     4     6     1    1
     5     1     2    1
     6     2     3    1
     7     3     4    1
     8     4    25    1
     9    25    26    1
    10    26    27    1
    11    27    28    1
    12    28    29    1
    13    29    30    1
    14    30    31    1
    15    31    32   ar
    16    32    33   ar
    17    33    34   ar
    18    34    35    1
    19    34    36   ar
    20    36    37   ar
    21    30    38    1
    22    38    39   ar
    23    39    40   ar
    24    40    41   ar
    25    41    42    1
    26    41    43   ar
    27    43    44   ar
    28     4     5    1
    29     8    11    1
    30    11    12   ar
    31    12    13   ar
    32    13    17    1
    33    17    18    1
    34    17    19    1
    35    17    20    1
    36    13    14   ar
    37    14    15   ar
    38    15    21    1
    39    21    22    1
    40    21    23    1
    41    21    24    1
    42    15    16   ar
    43     5     1    1
    44    16    11   ar
    45    37    31   ar
    46    44    38   ar
    47     9    10    1
@<TRIPOS>MOLECULE
*****
 44 47 0 0 0
SMALL
GASTEIGER

@<TRIPOS>ATOM
      1 C         141.1978  139.0278  158.9813 C.3     1  UNL1        0.0370
      2 C         142.0303  138.3170  157.9557 C.3     1  UNL1        0.0204
      3 C         143.2089  139.1864  157.6318 C.3     1  UNL1        0.0722
      4 N         143.1049  140.4346  158.4572 N.3     1  UNL1       -0.2726
      5 C         141.8620  140.3365  159.2912 C.3     1  UNL1        0.0738
      6 C         139.9248  138.5192  159.5901 C.3     1  UNL1        0.0911
      7 O         140.9922  137.3506  162.1386 O.2     1  UNL1       -0.2701
      8 C         139.9938  138.4690  162.1868 C.2     1  UNL1        0.2458
      9 N         139.4601  139.0533  160.9125 N.am    1  UNL1       -0.3008
     10 H         138.8047  139.7873  160.9441 H       1  UNL1        0.1497
     11 C         139.5290  139.0031  163.5092 C.ar    1  UNL1        0.0533
     12 C         138.8519  138.0921  164.4899 C.ar    1  UNL1        0.0083
     13 C         138.3871  138.6262  165.8123 C.ar    1  UNL1        0.0715
     14 C         138.5996  140.0713  166.1540 C.ar    1  UNL1        0.0077
     15 C         139.2767  140.9822  165.1734 C.ar    1  UNL1        0.0715
     16 C         139.7414  140.4481  163.8509 C.ar    1  UNL1        0.0083
     17 C         137.7100  137.7153  166.7929 C.3     1  UNL1        0.4186
     18 F         137.0329  136.8043  167.7735 F       1  UNL1       -0.1659
     19 F         137.4438  138.8840  167.6948 F       1  UNL1       -0.1659
     20 F         137.9763  136.5466  165.8910 F       1  UNL1       -0.1659
     21 C         139.4891  142.4272  165.5151 C.3     1  UNL1        0.4186
     22 F         139.7015  143.8722  165.8569 F       1  UNL1       -0.1659
     23 F         139.9302  142.0362  166.8944 F       1  UNL1       -0.1659
     24 F         139.0481  142.8183  164.1358 F       1  UNL1       -0.1659
     25 C         144.0737  141.5797  158.4498 C.3     1  UNL1        0.0721
     26 C         144.0395  142.5982  159.5505 C.3     1  UNL1        0.0173
     27 C         144.9486  142.4534  160.7348 C.3     1  UNL1        0.0014
     28 C         144.6686  141.4062  161.7716 C.3     1  UNL1        0.0007
     29 C         144.7481  141.7533  163.2288 C.3     1  UNL1        0.0087
     30 C         143.4996  142.0912  163.9885 C.3     1  UNL1        0.0446
     31 C         143.1660  141.3515  165.2501 C.ar    1  UNL1       -0.0183
     32 C         142.8660  139.8826  165.2013 C.ar    1  UNL1       -0.0017
     33 C         142.5324  139.1430  166.4629 C.ar    1  UNL1        0.0293
     34 C         142.4989  139.8722  167.7733 C.ar    1  UNL1        0.1401
     35 F         142.1653  139.1325  169.0349 F       1  UNL1       -0.2042
     36 C         142.7989  141.3410  167.8221 C.ar    1  UNL1        0.0293
     37 C         143.1325  142.0807  166.5605 C.ar    1  UNL1       -0.0017
     38 C         142.5848  143.1687  163.4867 C.ar    1  UNL1       -0.0183
     39 C         142.5744  144.5134  164.1512 C.ar    1  UNL1       -0.0017
     40 C         141.6595  145.5910  163.6494 C.ar    1  UNL1        0.0293
     41 C         140.7550  145.3239  162.4830 C.ar    1  UNL1        0.1401
     42 F         139.8401  146.4015  161.9812 F       1  UNL1       -0.2042
     43 C         140.7653  143.9791  161.8184 C.ar    1  UNL1        0.0293
     44 C         141.6802  142.9016  162.3202 C.ar    1  UNL1       -0.0017
@<TRIPOS>BOND
     1     7     8    2
     2     8     9   am
     3     9     6    1
     4     6     1    1
     5     1     2    1
     6     2     3    1
     7     3     4    1
     8     4    25    1
     9    25    26    1
    10    26    27    1
    11    27    28    1
    12    28    29    1
    13    29    30    1
    14    30    31    1
    15    31    32   ar
    16    32    33   ar
    17    33    34   ar
    18    34    35    1
    19    34    36   ar
    20    36    37   ar
    21    30    38    1
    22    38    39   ar
    23    39    40   ar
    24    40    41   ar
    25    41    42    1
    26    41    43   ar
    27    43    44   ar
    28     4     5    1
    29     8    11    1
    30    11    12   ar
    31    12    13   ar
    32    13    17    1
    33    17    18    1
    34    17    19    1
    35    17    20    1
    36    13    14   ar
    37    14    15   ar
    38    15    21    1
    39    21    22    1
    40    21    23    1
    41    21    24    1
    42    15    16   ar
    43     5     1    1
    44    16    11   ar
    45    37    31   ar
    46    44    38   ar
    47     9    10    1
@<TRIPOS>MOLECULE
*****
 44 47 0 0 0
SMALL
GASTEIGER

@<TRIPOS>ATOM
      1 C         139.7426  144.3924  160.9946 C.3     1  UNL1        0.0370
      2 C         140.5045  145.5021  160.3329 C.3     1  UNL1        0.0204
      3 C         141.0795  144.9709  159.0533 C.3     1  UNL1        0.0722
      4 N         140.6729  143.5329  158.9243 N.3     1  UNL1       -0.2726
      5 C         139.8467  143.1753  160.1241 C.3     1  UNL1        0.0738
      6 C         139.0059  144.4836  162.2981 C.3     1  UNL1        0.0911
      7 O         137.6879  141.8273  162.7525 O.2     1  UNL1       -0.2701
      8 C         138.7644  142.2996  163.6843 C.2     1  UNL1        0.2458
      9 N         139.4234  143.6277  163.4571 N.am    1  UNL1       -0.3008
     10 H         140.1299  143.9377  164.0686 H       1  UNL1        0.1497
     11 C         139.1818  141.4437  164.8433 C.ar    1  UNL1        0.0533
     12 C         138.3211  140.2932  165.2744 C.ar    1  UNL1        0.0083
     13 C         138.7386  139.4373  166.4333 C.ar    1  UNL1        0.0715
     14 C         140.0167  139.7319  167.1612 C.ar    1  UNL1        0.0077
     15 C         140.8774  140.8823  166.7301 C.ar    1  UNL1        0.0715
     16 C         140.4599  141.7382  165.5711 C.ar    1  UNL1        0.0083
     17 C         137.8780  138.2870  166.8644 C.3     1  UNL1        0.4186
     18 F         137.0173  137.1365  167.2954 F       1  UNL1       -0.1659
     19 F         137.4647  139.0536  168.0856 F       1  UNL1       -0.1659
     20 F         138.2912  137.5202  165.6431 F       1  UNL1       -0.1659
     21 C         142.1554  141.1768  167.4579 C.3     1  UNL1        0.4186
     22 F         143.4335  141.4713  168.1857 F       1  UNL1       -0.1659
     23 F         141.7433  142.6119  167.6009 F       1  UNL1       -0.1659
     24 F         142.5676  139.7416  167.3149 F       1  UNL1       -0.1659
     25 C         141.0299  142.6138  157.7939 C.3     1  UNL1        0.0721
     26 C         141.9495  141.4530  158.0329 C.3     1  UNL1        0.0173
     27 C         143.1071  141.5950  158.9761 C.3     1  UNL1        0.0014
     28 C         143.8432  140.3766  159.4488 C.3     1  UNL1        0.0007
     29 C         144.1742  140.2174  160.9032 C.3     1  UNL1        0.0087
     30 C         143.1820  140.6340  161.9481 C.3     1  UNL1        0.0446
     31 C         143.4007  141.8958  162.7294 C.ar    1  UNL1       -0.0183
     32 C         143.0585  143.2234  162.1210 C.ar    1  UNL1       -0.0017
     33 C         143.2772  144.4851  162.9022 C.ar    1  UNL1        0.0293
     34 C         143.8381  144.4190  164.2918 C.ar    1  UNL1        0.1401
     35 F         144.0568  145.6808  165.0731 F       1  UNL1       -0.2042
     36 C         144.1803  143.0914  164.9002 C.ar    1  UNL1        0.0293
     37 C         143.9616  141.8297  164.1190 C.ar    1  UNL1       -0.0017
     38 C         141.9712  139.7889  162.2119 C.ar    1  UNL1       -0.0183
     39 C         140.7452  139.9494  161.3627 C.ar    1  UNL1       -0.0017
     40 C         139.5343  139.1043  161.6265 C.ar    1  UNL1        0.0293
     41 C         139.5494  138.0988  162.7394 C.ar    1  UNL1        0.1401
     42 F         138.3385  137.2537  163.0032 F       1  UNL1       -0.2042
     43 C         140.7754  137.9383  163.5887 C.ar    1  UNL1        0.0293
     44 C         141.9863  138.7834  163.3249 C.ar    1  UNL1       -0.0017
@<TRIPOS>BOND
     1     7     8    2
     2     8     9   am
     3     9     6    1
     4     6     1    1
     5     1     2    1
     6     2     3    1
     7     3     4    1
     8     4    25    1
     9    25    26    1
    10    26    27    1
    11    27    28    1
    12    28    29    1
    13    29    30    1
    14    30    31    1
    15    31    32   ar
    16    32    33   ar
    17    33    34   ar
    18    34    35    1
    19    34    36   ar
    20    36    37   ar
    21    30    38    1
    22    38    39   ar
    23    39    40   ar
    24    40    41   ar
    25    41    42    1
    26    41    43   ar
    27    43    44   ar
    28     4     5    1
    29     8    11    1
    30    11    12   ar
    31    12    13   ar
    32    13    17    1
    33    17    18    1
    34    17    19    1
    35    17    20    1
    36    13    14   ar
    37    14    15   ar
    38    15    21    1
    39    21    22    1
    40    21    23    1
    41    21    24    1
    42    15    16   ar
    43     5     1    1
    44    16    11   ar
    45    37    31   ar
    46    44    38   ar
    47     9    10    1
