@<TRIPOS>MOLECULE
*****
 31 35 0 0 0
SMALL
GASTEIGER

@<TRIPOS>ATOM
      1 C         141.2648  145.2083  162.4915 C.3     1  UNL1        0.0723
      2 N         141.4083  144.2860  163.6657 N.3     1  UNL1       -0.2698
      3 C         142.7389  143.6660  163.9742 C.3     1  UNL1        0.0938
      4 C         142.8824  142.7438  165.1484 C.3     1  UNL1        0.1081
      5 N         141.6953  142.4415  166.0142 N.pl3   1  UNL1       -0.3046
      6 C         140.3647  143.0615  165.7057 C.3     1  UNL1        0.1081
      7 C         140.2212  143.9838  164.5314 C.3     1  UNL1        0.0938
      8 C         141.8388  141.5193  167.1884 C.ar    1  UNL1        0.0484
      9 C         142.5825  140.2252  167.0392 C.ar    1  UNL1        0.0146
     10 C         142.7259  139.3029  168.2136 C.ar    1  UNL1        0.0018
     11 C         142.1257  139.6748  169.5370 C.ar    1  UNL1        0.0066
     12 C         141.3821  140.9688  169.6861 C.ar    1  UNL1        0.0307
     13 S         140.6885  141.5986  170.8576 S.2     1  UNL1       -0.0864
     14 C         140.1163  142.9101  170.4074 C.ar    1  UNL1        0.0355
     15 C         140.4563  143.0909  168.9576 C.ar    1  UNL1        0.0087
     16 C         141.2386  141.8911  168.5119 C.ar    1  UNL1        0.0198
     17 C         140.3450  144.8478  161.3627 C.3     1  UNL1        0.0194
     18 C         140.7728  143.8371  160.3402 C.3     1  UNL1        0.0279
     19 C         140.0328  142.5384  160.2141 C.3     1  UNL1        0.1323
     20 C         138.6883  138.9721  165.4178 C.ar    1  UNL1        0.0862
     21 C         140.0801  138.4545  165.2064 C.ar    1  UNL1        0.0150
     22 C         140.9076  138.9713  164.0671 C.ar    1  UNL1        0.0400
     23 C         140.3432  140.0057  163.1390 C.ar    1  UNL1        0.1708
     24 N         140.9177  140.6975  161.9385 N.ar    1  UNL1       -0.1474
     25 N         139.8809  141.6428  161.4078 N.ar    1  UNL1       -0.2006
     26 C         138.6656  141.5352  162.2804 C.ar    1  UNL1        0.3523
     27 O         137.3888  142.3043  162.1126 O.2     1  UNL1       -0.2444
     28 N         138.9513  140.5234  163.3503 N.ar    1  UNL1       -0.2401
     29 C         138.1239  140.0066  164.4897 C.ar    1  UNL1        0.0961
     30 N         137.0333  137.9385  167.6966 N.1     1  UNL1       -0.1908
     31 C         137.8608  138.4553  166.5572 C.1     1  UNL1        0.1019
@<TRIPOS>BOND
     1    30    31    3
     2    31    20    1
     3    20    21   ar
     4    21    22   ar
     5    22    23   ar
     6    23    24   ar
     7    24    25   ar
     8    25    19    1
     9    19    18    1
    10    18    17    1
    11    17     1    1
    12     1     2    1
    13     2     3    1
    14     3     4    1
    15     4     5    1
    16     5     8    1
    17     8     9   ar
    18     9    10   ar
    19    10    11   ar
    20    11    12   ar
    21    12    13   ar
    22    13    14   ar
    23    14    15   ar
    24    15    16   ar
    25     5     6    1
    26     6     7    1
    27    25    26   ar
    28    26    27    2
    29    26    28   ar
    30    28    29   ar
    31    29    20   ar
    32    28    23   ar
    33     7     2    1
    34    16     8   ar
    35    16    12   ar
@<TRIPOS>MOLECULE
*****
 31 35 0 0 0
SMALL
GASTEIGER

@<TRIPOS>ATOM
      1 C         140.5926  142.8420  159.9728 C.3     1  UNL1        0.0723
      2 N         140.9365  142.2865  161.3230 N.3     1  UNL1       -0.2698
      3 C         141.6285  140.9604  161.4344 C.3     1  UNL1        0.0938
      4 C         141.9724  140.4049  162.7847 C.3     1  UNL1        0.1081
      5 N         141.6243  141.1757  164.0236 N.pl3   1  UNL1       -0.3046
      6 C         140.9323  142.5018  163.9122 C.3     1  UNL1        0.1081
      7 C         140.5884  143.0572  162.5619 C.3     1  UNL1        0.0938
      8 C         141.9682  140.6202  165.3738 C.ar    1  UNL1        0.0484
      9 C         142.7422  139.3400  165.4833 C.ar    1  UNL1        0.0146
     10 C         143.0861  138.7846  166.8336 C.ar    1  UNL1        0.0018
     11 C         142.6560  139.5094  168.0744 C.ar    1  UNL1        0.0066
     12 C         141.8820  140.7896  167.9650 C.ar    1  UNL1        0.0307
     13 S         141.3271  141.7189  169.0035 S.2     1  UNL1       -0.0864
     14 C         140.6402  142.8487  168.2950 C.ar    1  UNL1        0.0355
     15 C         140.7706  142.6176  166.8187 C.ar    1  UNL1        0.0087
     16 C         141.5381  141.3450  166.6147 C.ar    1  UNL1        0.0198
     17 C         139.2471  142.5673  159.3693 C.3     1  UNL1        0.0194
     18 C         138.9039  141.1848  158.8995 C.3     1  UNL1        0.0279
     19 C         137.8625  140.3837  159.6232 C.3     1  UNL1        0.1323
     20 C         138.6585  139.0211  165.8773 C.ar    1  UNL1        0.0862
     21 C         139.2395  137.7447  165.3454 C.ar    1  UNL1        0.0150
     22 C         139.3097  137.5121  163.8652 C.ar    1  UNL1        0.0400
     23 C         138.7989  138.5560  162.9169 C.ar    1  UNL1        0.1708
     24 N         138.7364  138.6072  161.4191 N.ar    1  UNL1       -0.1474
     25 N         138.1169  139.9153  161.0254 N.ar    1  UNL1       -0.2006
     26 C         137.7964  140.6726  162.2798 C.ar    1  UNL1        0.3523
     27 O         137.1652  142.0314  162.3525 O.2     1  UNL1       -0.2444
     28 N         138.2179  139.8325  163.4489 N.ar    1  UNL1       -0.2401
     29 C         138.1478  140.0651  164.9291 C.ar    1  UNL1        0.0961
     30 N         138.5182  139.4862  168.8378 N.1     1  UNL1       -0.1908
     31 C         138.5884  139.2537  167.3575 C.1     1  UNL1        0.1019
@<TRIPOS>BOND
     1    30    31    3
     2    31    20    1
     3    20    21   ar
     4    21    22   ar
     5    22    23   ar
     6    23    24   ar
     7    24    25   ar
     8    25    19    1
     9    19    18    1
    10    18    17    1
    11    17     1    1
    12     1     2    1
    13     2     3    1
    14     3     4    1
    15     4     5    1
    16     5     8    1
    17     8     9   ar
    18     9    10   ar
    19    10    11   ar
    20    11    12   ar
    21    12    13   ar
    22    13    14   ar
    23    14    15   ar
    24    15    16   ar
    25     5     6    1
    26     6     7    1
    27    25    26   ar
    28    26    27    2
    29    26    28   ar
    30    28    29   ar
    31    29    20   ar
    32    28    23   ar
    33     7     2    1
    34    16     8   ar
    35    16    12   ar
@<TRIPOS>MOLECULE
*****
 31 35 0 0 0
SMALL
GASTEIGER

@<TRIPOS>ATOM
      1 C         141.1312  145.1370  160.6334 C.3     1  UNL1        0.0723
      2 N         141.1580  144.3067  161.8824 N.3     1  UNL1       -0.2698
      3 C         140.3736  144.7374  163.0863 C.3     1  UNL1        0.0938
      4 C         140.4004  143.9072  164.3352 C.3     1  UNL1        0.1081
      5 N         141.2115  142.6461  164.3803 N.pl3   1  UNL1       -0.3046
      6 C         141.9958  142.2154  163.1764 C.3     1  UNL1        0.1081
      7 C         141.9690  143.0458  161.9274 C.3     1  UNL1        0.0938
      8 C         141.2383  141.8159  165.6292 C.ar    1  UNL1        0.0484
      9 C         140.3678  142.1847  166.7938 C.ar    1  UNL1        0.0146
     10 C         140.3946  141.3543  168.0428 C.ar    1  UNL1        0.0018
     11 C         141.2919  140.1553  168.1272 C.ar    1  UNL1        0.0066
     12 C         142.1623  139.7865  166.9626 C.ar    1  UNL1        0.0307
     13 S         143.1412  138.6690  166.7554 S.2     1  UNL1       -0.0864
     14 C         143.7195  138.8086  165.3783 C.ar    1  UNL1        0.0355
     15 C         143.0979  140.0124  164.7344 C.ar    1  UNL1        0.0087
     16 C         142.1356  140.6167  165.7136 C.ar    1  UNL1        0.0198
     17 C         140.1078  144.8620  159.5718 C.3     1  UNL1        0.0194
     18 C         140.0191  143.4997  158.9504 C.3     1  UNL1        0.0279
     19 C         138.8592  142.6039  159.2696 C.3     1  UNL1        0.1323
     20 C         138.6152  139.3162  164.8137 C.ar    1  UNL1        0.0862
     21 C         139.4922  138.3488  164.0756 C.ar    1  UNL1        0.0150
     22 C         139.8913  138.6298  162.6573 C.ar    1  UNL1        0.0400
     23 C         139.4134  139.8782  161.9769 C.ar    1  UNL1        0.1708
     24 N         139.6410  140.4191  160.5965 N.ar    1  UNL1       -0.1474
     25 N         138.9047  141.7208  160.4814 N.ar    1  UNL1       -0.2006
     26 C         138.2219  141.9845  161.7906 C.ar    1  UNL1        0.3523
     27 O         137.3737  143.1775  162.1182 O.2     1  UNL1       -0.2444
     28 N         138.5363  140.8456  162.7150 N.ar    1  UNL1       -0.2401
     29 C         138.1372  140.5647  164.1333 C.ar    1  UNL1        0.0961
     30 N         137.8170  138.7543  167.6504 N.1     1  UNL1       -0.1908
     31 C         138.2161  139.0352  166.2320 C.1     1  UNL1        0.1019
@<TRIPOS>BOND
     1    30    31    3
     2    31    20    1
     3    20    21   ar
     4    21    22   ar
     5    22    23   ar
     6    23    24   ar
     7    24    25   ar
     8    25    19    1
     9    19    18    1
    10    18    17    1
    11    17     1    1
    12     1     2    1
    13     2     3    1
    14     3     4    1
    15     4     5    1
    16     5     8    1
    17     8     9   ar
    18     9    10   ar
    19    10    11   ar
    20    11    12   ar
    21    12    13   ar
    22    13    14   ar
    23    14    15   ar
    24    15    16   ar
    25     5     6    1
    26     6     7    1
    27    25    26   ar
    28    26    27    2
    29    26    28   ar
    30    28    29   ar
    31    29    20   ar
    32    28    23   ar
    33     7     2    1
    34    16     8   ar
    35    16    12   ar
@<TRIPOS>MOLECULE
*****
 31 35 0 0 0
SMALL
GASTEIGER

@<TRIPOS>ATOM
      1 C         139.8090  142.5481  157.9184 C.3     1  UNL1        0.0723
      2 N         139.7439  142.0193  159.3205 N.3     1  UNL1       -0.2698
      3 C         140.9947  141.5543  160.0056 C.3     1  UNL1        0.0938
      4 C         140.9296  141.0254  161.4077 C.3     1  UNL1        0.1081
      5 N         139.6136  140.9615  162.1249 N.pl3   1  UNL1       -0.3046
      6 C         138.3628  141.4265  161.4398 C.3     1  UNL1        0.1081
      7 C         138.4280  141.9554  160.0376 C.3     1  UNL1        0.0938
      8 C         139.5485  140.4326  163.5270 C.ar    1  UNL1        0.0484
      9 C         138.2218  140.2786  164.2097 C.ar    1  UNL1        0.0146
     10 C         138.1567  139.7497  165.6119 C.ar    1  UNL1        0.0018
     11 C         139.4184  139.3748  166.3313 C.ar    1  UNL1        0.0066
     12 C         140.7451  139.5288  165.6487 C.ar    1  UNL1        0.0307
     13 S         142.1463  139.2441  166.1021 S.2     1  UNL1       -0.0864
     14 C         143.0774  139.5970  164.9802 C.ar    1  UNL1        0.0355
     15 C         142.2517  140.0999  163.8334 C.ar    1  UNL1        0.0087
     16 C         140.8102  140.0577  164.2465 C.ar    1  UNL1        0.0198
     17 C         140.6818  143.7261  157.6009 C.3     1  UNL1        0.0194
     18 C         140.3542  145.0763  158.1663 C.3     1  UNL1        0.0279
     19 C         141.0891  145.5830  159.3717 C.3     1  UNL1        0.1323
     20 C         140.0204  143.5361  165.3943 C.ar    1  UNL1        0.0862
     21 C         138.5960  143.8770  165.0706 C.ar    1  UNL1        0.0150
     22 C         138.2449  144.4279  163.7204 C.ar    1  UNL1        0.0400
     23 C         139.3182  144.6380  162.6938 C.ar    1  UNL1        0.1708
     24 N         139.2747  145.1612  161.2887 N.ar    1  UNL1       -0.1474
     25 N         140.6722  145.1436  160.7440 N.ar    1  UNL1       -0.2006
     26 C         141.5794  144.6096  161.8124 C.ar    1  UNL1        0.3523
     27 O         143.0630  144.4212  161.6962 O.2     1  UNL1       -0.2444
     28 N         140.7426  144.2971  163.0175 N.ar    1  UNL1       -0.2401
     29 C         141.0937  143.7461  164.3678 C.ar    1  UNL1        0.0961
     30 N         140.7226  142.4342  168.0948 N.1     1  UNL1       -0.1908
     31 C         140.3715  142.9851  166.7446 C.1     1  UNL1        0.1019
@<TRIPOS>BOND
     1    30    31    3
     2    31    20    1
     3    20    21   ar
     4    21    22   ar
     5    22    23   ar
     6    23    24   ar
     7    24    25   ar
     8    25    19    1
     9    19    18    1
    10    18    17    1
    11    17     1    1
    12     1     2    1
    13     2     3    1
    14     3     4    1
    15     4     5    1
    16     5     8    1
    17     8     9   ar
    18     9    10   ar
    19    10    11   ar
    20    11    12   ar
    21    12    13   ar
    22    13    14   ar
    23    14    15   ar
    24    15    16   ar
    25     5     6    1
    26     6     7    1
    27    25    26   ar
    28    26    27    2
    29    26    28   ar
    30    28    29   ar
    31    29    20   ar
    32    28    23   ar
    33     7     2    1
    34    16     8   ar
    35    16    12   ar
@<TRIPOS>MOLECULE
*****
 31 35 0 0 0
SMALL
GASTEIGER

@<TRIPOS>ATOM
      1 C         139.8905  145.8094  161.4156 C.3     1  UNL1        0.0723
      2 N         139.7045  144.7101  162.4190 N.3     1  UNL1       -0.2698
      3 C         140.5045  144.7094  163.6878 C.3     1  UNL1        0.0938
      4 C         140.3184  143.6101  164.6912 C.3     1  UNL1        0.1081
      5 N         139.3322  142.5114  164.4258 N.pl3   1  UNL1       -0.3046
      6 C         138.5322  142.5120  163.1570 C.3     1  UNL1        0.1081
      7 C         138.7184  143.6114  162.1535 C.3     1  UNL1        0.0938
      8 C         139.1462  141.4121  165.4292 C.ar    1  UNL1        0.0484
      9 C         138.1764  140.3014  165.1537 C.ar    1  UNL1        0.0146
     10 C         137.9903  139.2020  166.1572 C.ar    1  UNL1        0.0018
     11 C         138.7740  139.2134  167.4361 C.ar    1  UNL1        0.0066
     12 C         139.7438  140.3241  167.7116 C.ar    1  UNL1        0.0307
     13 S         140.6491  140.6006  168.8752 S.2     1  UNL1       -0.0864
     14 C         141.3947  141.8708  168.5910 C.ar    1  UNL1        0.0355
     15 C         140.9502  142.3793  167.2516 C.ar    1  UNL1        0.0087
     16 C         139.9298  141.4234  166.7082 C.ar    1  UNL1        0.0198
     17 C         140.3937  145.4909  160.0388 C.3     1  UNL1        0.0194
     18 C         141.6655  144.7146  159.8660 C.3     1  UNL1        0.0279
     19 C         141.6129  143.2434  159.5785 C.3     1  UNL1        0.1323
     20 C         142.3142  139.4469  164.7457 C.ar    1  UNL1        0.0862
     21 C         141.2782  138.6110  164.0544 C.ar    1  UNL1        0.0150
     22 C         140.7231  139.0476  162.7310 C.ar    1  UNL1        0.0400
     23 C         141.2039  140.3201  162.0990 C.ar    1  UNL1        0.1708
     24 N         140.8430  141.0003  160.8118 N.ar    1  UNL1       -0.1474
     25 N         141.6559  142.2566  160.7075 N.ar    1  UNL1       -0.2006
     26 C         142.5192  142.3529  161.9304 C.ar    1  UNL1        0.3523
     27 O         143.4911  143.4529  162.2390 O.2     1  UNL1       -0.2444
     28 N         142.2398  141.1560  162.7904 N.ar    1  UNL1       -0.2401
     29 C         142.7949  140.7195  164.1137 C.ar    1  UNL1        0.0961
     30 N         143.4244  138.5738  167.3924 N.1     1  UNL1       -0.1908
     31 C         142.8693  139.0104  166.0690 C.1     1  UNL1        0.1019
@<TRIPOS>BOND
     1    30    31    3
     2    31    20    1
     3    20    21   ar
     4    21    22   ar
     5    22    23   ar
     6    23    24   ar
     7    24    25   ar
     8    25    19    1
     9    19    18    1
    10    18    17    1
    11    17     1    1
    12     1     2    1
    13     2     3    1
    14     3     4    1
    15     4     5    1
    16     5     8    1
    17     8     9   ar
    18     9    10   ar
    19    10    11   ar
    20    11    12   ar
    21    12    13   ar
    22    13    14   ar
    23    14    15   ar
    24    15    16   ar
    25     5     6    1
    26     6     7    1
    27    25    26   ar
    28    26    27    2
    29    26    28   ar
    30    28    29   ar
    31    29    20   ar
    32    28    23   ar
    33     7     2    1
    34    16     8   ar
    35    16    12   ar
@<TRIPOS>MOLECULE
*****
 31 35 0 0 0
SMALL
GASTEIGER

@<TRIPOS>ATOM
      1 C         142.0895  142.9799  159.6117 C.3     1  UNL1        0.0723
      2 N         141.5186  142.4077  160.8752 N.3     1  UNL1       -0.2698
      3 C         141.9797  142.9218  162.2068 C.3     1  UNL1        0.0938
      4 C         141.4088  142.3495  163.4703 C.3     1  UNL1        0.1081
      5 N         140.3767  141.2631  163.4023 N.pl3   1  UNL1       -0.3046
      6 C         139.9156  140.7490  162.0708 C.3     1  UNL1        0.1081
      7 C         140.4866  141.3213  160.8072 C.3     1  UNL1        0.0938
      8 C         139.8058  140.6908  164.6659 C.ar    1  UNL1        0.0484
      9 C         138.7712  139.6069  164.5978 C.ar    1  UNL1        0.0146
     10 C         138.2003  139.0346  165.8615 C.ar    1  UNL1        0.0018
     11 C         138.6640  139.5463  167.1930 C.ar    1  UNL1        0.0066
     12 C         139.6987  140.6303  167.2610 C.ar    1  UNL1        0.0307
     13 S         140.3450  141.3296  168.4200 S.2     1  UNL1       -0.0864
     14 C         141.3154  142.3341  167.8727 C.ar    1  UNL1        0.0355
     15 C         141.2688  142.2556  166.3755 C.ar    1  UNL1        0.0087
     16 C         140.2696  141.2025  165.9975 C.ar    1  UNL1        0.0198
     17 C         143.2555  142.3116  158.9454 C.3     1  UNL1        0.0194
     18 C         143.1762  140.8605  158.5738 C.3     1  UNL1        0.0279
     19 C         143.9894  139.8485  159.3251 C.3     1  UNL1        0.1323
     20 C         142.8030  138.6623  165.5533 C.ar    1  UNL1        0.0862
     21 C         141.8187  137.6763  164.9974 C.ar    1  UNL1        0.0150
     22 C         141.6669  137.5238  163.5129 C.ar    1  UNL1        0.0400
     23 C         142.4994  138.3573  162.5843 C.ar    1  UNL1        0.1708
     24 N         142.5690  138.4265  161.0875 N.ar    1  UNL1       -0.1474
     25 N         143.5964  139.4553  160.7184 N.ar    1  UNL1       -0.2006
     26 C         144.1617  140.0219  161.9870 C.ar    1  UNL1        0.3523
     27 O         145.2192  141.0811  162.0852 O.2     1  UNL1       -0.2444
     28 N         143.4837  139.3432  163.1402 N.ar    1  UNL1       -0.2401
     29 C         143.6354  139.4957  164.6247 C.ar    1  UNL1        0.0961
     30 N         143.1065  138.9673  168.5223 N.1     1  UNL1       -0.1908
     31 C         142.9547  138.8148  167.0378 C.1     1  UNL1        0.1019
@<TRIPOS>BOND
     1    30    31    3
     2    31    20    1
     3    20    21   ar
     4    21    22   ar
     5    22    23   ar
     6    23    24   ar
     7    24    25   ar
     8    25    19    1
     9    19    18    1
    10    18    17    1
    11    17     1    1
    12     1     2    1
    13     2     3    1
    14     3     4    1
    15     4     5    1
    16     5     8    1
    17     8     9   ar
    18     9    10   ar
    19    10    11   ar
    20    11    12   ar
    21    12    13   ar
    22    13    14   ar
    23    14    15   ar
    24    15    16   ar
    25     5     6    1
    26     6     7    1
    27    25    26   ar
    28    26    27    2
    29    26    28   ar
    30    28    29   ar
    31    29    20   ar
    32    28    23   ar
    33     7     2    1
    34    16     8   ar
    35    16    12   ar
@<TRIPOS>MOLECULE
*****
 31 35 0 0 0
SMALL
GASTEIGER

@<TRIPOS>ATOM
      1 C         138.6170  142.2750  159.5796 C.3     1  UNL1        0.0723
      2 N         138.8256  141.8857  161.0130 N.3     1  UNL1       -0.2698
      3 C         140.1221  142.2056  161.6961 C.3     1  UNL1        0.0938
      4 C         140.3306  141.8162  163.1296 C.3     1  UNL1        0.1081
      5 N         139.2426  141.1069  163.8800 N.pl3   1  UNL1       -0.3046
      6 C         137.9460  140.7869  163.1969 C.3     1  UNL1        0.1081
      7 C         137.7375  141.1763  161.7634 C.3     1  UNL1        0.0938
      8 C         139.4511  140.7175  165.3135 C.ar    1  UNL1        0.0484
      9 C         138.4303  139.8736  166.0176 C.ar    1  UNL1        0.0146
     10 C         138.6388  139.4843  167.4511 C.ar    1  UNL1        0.0018
     11 C         139.8682  139.9387  168.1805 C.ar    1  UNL1        0.0066
     12 C         140.8891  140.7826  167.4764 C.ar    1  UNL1        0.0307
     13 S         142.1891  141.3752  167.9332 S.2     1  UNL1       -0.0864
     14 C         142.7841  142.1308  166.7820 C.ar    1  UNL1        0.0355
     15 C         141.8517  142.0052  165.6137 C.ar    1  UNL1        0.0087
     16 C         140.6806  141.1720  166.0429 C.ar    1  UNL1        0.0198
     17 C         139.3551  141.5532  158.4913 C.3     1  UNL1        0.0194
     18 C         138.9266  140.1757  158.0805 C.3     1  UNL1        0.0279
     19 C         139.7817  138.9914  158.4214 C.3     1  UNL1        0.1323
     20 C         141.9547  138.0935  164.4277 C.ar    1  UNL1        0.0862
     21 C         140.6109  137.4591  164.6317 C.ar    1  UNL1        0.0150
     22 C         139.6346  137.3883  163.4952 C.ar    1  UNL1        0.0400
     23 C         140.0021  137.9519  162.1546 C.ar    1  UNL1        0.1708
     24 N         139.2526  138.0264  160.8574 N.ar    1  UNL1       -0.1474
     25 N         140.1332  138.7069  159.8516 N.ar    1  UNL1       -0.2006
     26 C         141.4270  139.0529  160.5272 C.ar    1  UNL1        0.3523
     27 O         142.5964  139.7442  159.8912 O.2     1  UNL1       -0.2444
     28 N         141.3459  138.5862  161.9505 N.ar    1  UNL1       -0.2401
     29 C         142.3222  138.6570  163.0871 C.ar    1  UNL1        0.0961
     30 N         143.9073  138.2351  166.7009 N.1     1  UNL1       -0.1908
     31 C         142.9310  138.1643  165.5643 C.1     1  UNL1        0.1019
@<TRIPOS>BOND
     1    30    31    3
     2    31    20    1
     3    20    21   ar
     4    21    22   ar
     5    22    23   ar
     6    23    24   ar
     7    24    25   ar
     8    25    19    1
     9    19    18    1
    10    18    17    1
    11    17     1    1
    12     1     2    1
    13     2     3    1
    14     3     4    1
    15     4     5    1
    16     5     8    1
    17     8     9   ar
    18     9    10   ar
    19    10    11   ar
    20    11    12   ar
    21    12    13   ar
    22    13    14   ar
    23    14    15   ar
    24    15    16   ar
    25     5     6    1
    26     6     7    1
    27    25    26   ar
    28    26    27    2
    29    26    28   ar
    30    28    29   ar
    31    29    20   ar
    32    28    23   ar
    33     7     2    1
    34    16     8   ar
    35    16    12   ar
@<TRIPOS>MOLECULE
*****
 31 35 0 0 0
SMALL
GASTEIGER

@<TRIPOS>ATOM
      1 C         140.2366  146.0598  161.6142 C.3     1  UNL1        0.0723
      2 N         140.1774  145.1129  162.7760 N.3     1  UNL1       -0.2698
      3 C         141.4327  144.7502  163.5127 C.3     1  UNL1        0.0938
      4 C         141.3735  143.8033  164.6745 C.3     1  UNL1        0.1081
      5 N         140.0589  143.2190  165.0997 N.pl3   1  UNL1       -0.3046
      6 C         138.8036  143.5817  164.3630 C.3     1  UNL1        0.1081
      7 C         138.8629  144.5287  163.2012 C.3     1  UNL1        0.0938
      8 C         139.9997  142.2721  166.2615 C.ar    1  UNL1        0.0484
      9 C         140.6179  142.6551  167.5735 C.ar    1  UNL1        0.0146
     10 C         140.5586  141.7081  168.7353 C.ar    1  UNL1        0.0018
     11 C         139.8813  140.3783  168.5852 C.ar    1  UNL1        0.0066
     12 C         139.2631  139.9953  167.2732 C.ar    1  UNL1        0.0307
     13 S         138.5334  138.7622  166.8294 S.2     1  UNL1       -0.0864
     14 C         138.1416  138.9470  165.3932 C.ar    1  UNL1        0.0355
     15 C         138.6292  140.2943  164.9495 C.ar    1  UNL1        0.0087
     16 C         139.3223  140.9422  166.1114 C.ar    1  UNL1        0.0198
     17 C         140.2755  145.5261  160.2129 C.3     1  UNL1        0.0194
     18 C         141.3917  144.6195  159.7863 C.3     1  UNL1        0.0279
     19 C         141.2494  143.1337  159.9344 C.3     1  UNL1        0.1323
     20 C         144.0120  139.6375  164.5980 C.ar    1  UNL1        0.0862
     21 C         145.2389  140.4064  164.2064 C.ar    1  UNL1        0.0150
     22 C         145.1678  141.4218  163.1046 C.ar    1  UNL1        0.0400
     23 C         143.8698  141.6683  162.3945 C.ar    1  UNL1        0.1708
     24 N         143.4971  142.5988  161.2786 N.ar    1  UNL1       -0.1474
     25 N         142.0398  142.4050  160.9805 N.ar    1  UNL1       -0.2006
     26 C         141.5118  141.3548  161.9122 C.ar    1  UNL1        0.3523
     27 O         140.1007  140.8486  161.9615 O.2     1  UNL1       -0.2444
     28 N         142.6429  140.8995  162.7861 N.ar    1  UNL1       -0.2401
     29 C         142.7139  139.8840  163.8879 C.ar    1  UNL1        0.0961
     30 N         144.1541  137.6067  166.8015 N.1     1  UNL1       -0.1908
     31 C         144.0830  138.6221  165.6998 C.1     1  UNL1        0.1019
@<TRIPOS>BOND
     1    30    31    3
     2    31    20    1
     3    20    21   ar
     4    21    22   ar
     5    22    23   ar
     6    23    24   ar
     7    24    25   ar
     8    25    19    1
     9    19    18    1
    10    18    17    1
    11    17     1    1
    12     1     2    1
    13     2     3    1
    14     3     4    1
    15     4     5    1
    16     5     8    1
    17     8     9   ar
    18     9    10   ar
    19    10    11   ar
    20    11    12   ar
    21    12    13   ar
    22    13    14   ar
    23    14    15   ar
    24    15    16   ar
    25     5     6    1
    26     6     7    1
    27    25    26   ar
    28    26    27    2
    29    26    28   ar
    30    28    29   ar
    31    29    20   ar
    32    28    23   ar
    33     7     2    1
    34    16     8   ar
    35    16    12   ar
@<TRIPOS>MOLECULE
*****
 31 35 0 0 0
SMALL
GASTEIGER

@<TRIPOS>ATOM
      1 C         142.4974  144.5403  162.6023 C.3     1  UNL1        0.0723
      2 N         142.0406  143.8090  163.8297 N.3     1  UNL1       -0.2698
      3 C         140.5756  143.6840  164.1266 C.3     1  UNL1        0.0938
      4 C         140.1188  142.9527  165.3540 C.3     1  UNL1        0.1081
      5 N         141.1270  142.3463  166.2845 N.pl3   1  UNL1       -0.3046
      6 C         142.5920  142.4713  165.9876 C.3     1  UNL1        0.1081
      7 C         143.0488  143.2026  164.7601 C.3     1  UNL1        0.0938
      8 C         140.6702  141.6150  167.5119 C.ar    1  UNL1        0.0484
      9 C         139.5704  140.5997  167.4142 C.ar    1  UNL1        0.0146
     10 C         139.1136  139.8684  168.6416 C.ar    1  UNL1        0.0018
     11 C         139.7567  140.1524  169.9667 C.ar    1  UNL1        0.0066
     12 C         140.8565  141.1677  170.0644 C.ar    1  UNL1        0.0307
     13 S         141.6723  141.6552  171.2249 S.2     1  UNL1       -0.0864
     14 C         142.6334  142.6878  170.7147 C.ar    1  UNL1        0.0355
     15 C         142.4115  142.8385  169.2389 C.ar    1  UNL1        0.0087
     16 C         141.3133  141.8990  168.8370 C.ar    1  UNL1        0.0198
     17 C         141.7165  144.4256  161.3267 C.3     1  UNL1        0.0194
     18 C         142.3588  143.8401  160.1042 C.3     1  UNL1        0.0279
     19 C         142.5142  142.3536  159.9776 C.3     1  UNL1        0.1323
     20 C         143.1201  138.6652  165.2343 C.ar    1  UNL1        0.0862
     21 C         141.6210  138.6561  165.1867 C.ar    1  UNL1        0.0150
     22 C         140.9005  139.4003  164.1018 C.ar    1  UNL1        0.0400
     23 C         141.6792  140.1537  163.0645 C.ar    1  UNL1        0.1708
     24 N         141.2479  140.9732  161.8845 N.ar    1  UNL1       -0.1474
     25 N         142.4806  141.4889  161.2028 N.ar    1  UNL1       -0.2006
     26 C         143.6737  140.9881  161.9615 C.ar    1  UNL1        0.3523
     27 O         145.1100  141.2639  161.6282 O.2     1  UNL1       -0.2444
     28 N         143.1784  140.1629  163.1121 N.ar    1  UNL1       -0.2401
     29 C         143.8989  139.4186  164.1970 C.ar    1  UNL1        0.0961
     30 N         144.5611  137.1767  167.4041 N.1     1  UNL1       -0.1908
     31 C         143.8406  137.9210  166.3192 C.1     1  UNL1        0.1019
@<TRIPOS>BOND
     1    30    31    3
     2    31    20    1
     3    20    21   ar
     4    21    22   ar
     5    22    23   ar
     6    23    24   ar
     7    24    25   ar
     8    25    19    1
     9    19    18    1
    10    18    17    1
    11    17     1    1
    12     1     2    1
    13     2     3    1
    14     3     4    1
    15     4     5    1
    16     5     8    1
    17     8     9   ar
    18     9    10   ar
    19    10    11   ar
    20    11    12   ar
    21    12    13   ar
    22    13    14   ar
    23    14    15   ar
    24    15    16   ar
    25     5     6    1
    26     6     7    1
    27    25    26   ar
    28    26    27    2
    29    26    28   ar
    30    28    29   ar
    31    29    20   ar
    32    28    23   ar
    33     7     2    1
    34    16     8   ar
    35    16    12   ar
