@<TRIPOS>MOLECULE
*****
 32 34 0 0 0
SMALL
GASTEIGER

@<TRIPOS>ATOM
      1 C         140.0905  141.5716  168.6825 C.3     1  UNL1        0.1261
      2 C         140.7876  142.8210  169.1331 C.3     1  UNL1        0.0290
      3 N         140.7570  142.0530  167.4278 N.am    1  UNL1       -0.2963
      4 C         140.7323  141.4371  166.0604 C.2     1  UNL1        0.2474
      5 O         141.5073  142.1671  165.0037 O.2     1  UNL1       -0.2701
      6 C         140.0352  140.1876  165.6097 C.ar    1  UNL1        0.0690
      7 C         140.2688  139.9254  164.1514 C.ar    1  UNL1        0.0260
      8 C         139.6576  138.7210  163.4987 C.ar    1  UNL1        0.1262
      9 C         138.8129  137.7790  164.3043 C.ar    1  UNL1        0.0328
     10 C         138.5794  138.0412  165.7626 C.ar    1  UNL1        0.0726
     11 CL        137.7347  137.0992  166.5682 Cl      1  UNL1       -0.0809
     12 C         139.1905  139.2456  166.4153 C.ar    1  UNL1        0.0655
     13 N         138.8344  139.3203  167.8705 N.am    1  UNL1       -0.2819
     14 C         139.2348  140.3554  168.8795 C.2     1  UNL1        0.2420
     15 O         138.7104  140.1468  170.2692 O.2     1  UNL1       -0.2731
     16 H         141.2796  142.8829  167.5132 H       1  UNL1        0.1501
     17 H         138.2620  138.5938  168.2080 H       1  UNL1        0.1549
     18 S         139.8911  138.4587  162.0404 S.O2    1  UNL1        0.0737
     19 O         139.0324  139.6378  161.6908 O.2     1  UNL1       -0.1499
     20 O         140.7499  137.2797  162.3899 O.2     1  UNL1       -0.1499
     21 N         140.1246  138.1965  160.5821 N.pl3   1  UNL1       -0.2128
     22 H         139.5018  137.6235  160.0791 H       1  UNL1        0.1738
     23 C         141.3071  138.8073  159.8901 C.ar    1  UNL1        0.0923
     24 C         142.2341  139.7118  160.6467 C.ar    1  UNL1        0.0204
     25 C         143.4165  140.3225  159.9547 C.ar    1  UNL1        0.0311
     26 C         143.6719  140.0287  158.5061 C.ar    1  UNL1        0.1425
     27 F         144.8543  140.6395  157.8141 F       1  UNL1       -0.2041
     28 C         142.7449  139.1242  157.7495 C.ar    1  UNL1        0.0606
     29 C         141.5625  138.5135  158.4415 C.ar    1  UNL1        0.1568
     30 F         140.6355  137.6089  157.6849 F       1  UNL1       -0.2027
     31 C         139.7599  142.9665  170.8493 C.3     1  UNL1        0.0022
     32 C         139.7343  141.6463  170.1377 C.3     1  UNL1        0.0269
@<TRIPOS>BOND
     1    31    32    1
     2    32     1    1
     3     1     2    1
     4     1     3    1
     5     3     4   am
     6     4     5    2
     7     4     6    1
     8     6     7   ar
     9     7     8   ar
    10     8    18    1
    11    18    19    2
    12    18    20    2
    13    18    21    1
    14    21    23    1
    15    23    24   ar
    16    24    25   ar
    17    25    26   ar
    18    26    27    1
    19    26    28   ar
    20    28    29   ar
    21    29    30    1
    22     8     9   ar
    23     9    10   ar
    24    10    11    1
    25    10    12   ar
    26    12    13    1
    27    13    14   am
    28    14    15    2
    29    14     1    1
    30    12     6   ar
    31    29    23   ar
    32     3    16    1
    33    21    22    1
    34    13    17    1
@<TRIPOS>MOLECULE
*****
 32 34 0 0 0
SMALL
GASTEIGER

@<TRIPOS>ATOM
      1 C         141.6170  139.8263  169.1402 C.3     1  UNL1        0.1261
      2 C         142.6429  139.7483  170.2318 C.3     1  UNL1        0.0290
      3 N         142.8073  139.2425  168.4385 N.am    1  UNL1       -0.2963
      4 C         142.9389  138.8369  167.0004 C.2     1  UNL1        0.2474
      5 O         144.2731  138.2796  166.6009 O.2     1  UNL1       -0.2701
      6 C         141.9130  138.9149  165.9088 C.ar    1  UNL1        0.0690
      7 C         142.4567  138.4026  164.6081 C.ar    1  UNL1        0.0260
      8 C         141.5893  138.3932  163.3844 C.ar    1  UNL1        0.1262
      9 C         140.1782  138.8960  163.4615 C.ar    1  UNL1        0.0328
     10 C         139.6345  139.4084  164.7622 C.ar    1  UNL1        0.0726
     11 CL        138.2234  139.9112  164.8392 Cl      1  UNL1       -0.0809
     12 C         140.5019  139.4178  165.9859 C.ar    1  UNL1        0.0655
     13 N         139.7683  139.9669  167.1735 N.am    1  UNL1       -0.2819
     14 C         140.2645  140.1487  168.5773 C.2     1  UNL1        0.2420
     15 O         139.2778  140.7296  169.5462 O.2     1  UNL1       -0.2731
     16 H         143.6078  139.1077  168.9954 H       1  UNL1        0.1501
     17 H         138.8381  140.2446  167.0099 H       1  UNL1        0.1549
     18 S         142.1329  137.8808  162.0836 S.O2    1  UNL1        0.0737
     19 O         140.7444  137.5210  161.6451 O.2     1  UNL1       -0.1499
     20 O         143.5215  138.2407  162.5222 O.2     1  UNL1       -0.1499
     21 N         142.6765  137.3685  160.7829 N.pl3   1  UNL1       -0.2128
     22 H         143.0780  136.4708  160.7366 H       1  UNL1        0.1738
     23 C         142.6084  138.2240  159.5525 C.ar    1  UNL1        0.0923
     24 C         142.3940  139.7032  159.6785 C.ar    1  UNL1        0.0204
     25 C         142.3259  140.5586  158.4483 C.ar    1  UNL1        0.0311
     26 C         142.4722  139.9348  157.0920 C.ar    1  UNL1        0.1425
     27 F         142.4041  140.7903  155.8617 F       1  UNL1       -0.2041
     28 C         142.6866  138.4556  156.9660 C.ar    1  UNL1        0.0606
     29 C         142.7547  137.6002  158.1963 C.ar    1  UNL1        0.1568
     30 F         142.9691  136.1209  158.0703 F       1  UNL1       -0.2027
     31 C         141.6373  141.0863  171.4123 C.3     1  UNL1        0.0022
     32 C         140.8833  140.3753  170.3278 C.3     1  UNL1        0.0269
@<TRIPOS>BOND
     1    31    32    1
     2    32     1    1
     3     1     2    1
     4     1     3    1
     5     3     4   am
     6     4     5    2
     7     4     6    1
     8     6     7   ar
     9     7     8   ar
    10     8    18    1
    11    18    19    2
    12    18    20    2
    13    18    21    1
    14    21    23    1
    15    23    24   ar
    16    24    25   ar
    17    25    26   ar
    18    26    27    1
    19    26    28   ar
    20    28    29   ar
    21    29    30    1
    22     8     9   ar
    23     9    10   ar
    24    10    11    1
    25    10    12   ar
    26    12    13    1
    27    13    14   am
    28    14    15    2
    29    14     1    1
    30    12     6   ar
    31    29    23   ar
    32     3    16    1
    33    21    22    1
    34    13    17    1
@<TRIPOS>MOLECULE
*****
 32 34 0 0 0
SMALL
GASTEIGER

@<TRIPOS>ATOM
      1 C         140.5737  141.7440  169.1139 C.3     1  UNL1        0.1261
      2 C         141.3143  142.9015  169.7154 C.3     1  UNL1        0.0290
      3 N         140.7368  142.6768  167.9505 N.am    1  UNL1       -0.2963
      4 C         140.2736  142.4965  166.5353 C.2     1  UNL1        0.2474
      5 O         140.5933  143.6226  165.5974 O.2     1  UNL1       -0.2701
      6 C         139.5331  141.3390  165.9337 C.ar    1  UNL1        0.0690
      7 C         139.2608  141.5607  164.4755 C.ar    1  UNL1        0.0260
      8 C         138.5283  140.5194  163.6824 C.ar    1  UNL1        0.1262
      9 C         138.0680  139.2562  164.3477 C.ar    1  UNL1        0.0328
     10 C         138.3402  139.0345  165.8060 C.ar    1  UNL1        0.0726
     11 CL        137.8799  137.7713  166.4713 Cl      1  UNL1       -0.0809
     12 C         139.0728  140.0758  166.5990 C.ar    1  UNL1        0.0655
     13 N         139.2393  139.6583  168.0301 N.am    1  UNL1       -0.2819
     14 C         139.9073  140.4006  169.1493 C.2     1  UNL1        0.2420
     15 O         139.9091  139.7081  170.4798 O.2     1  UNL1       -0.2731
     16 H         141.2104  143.5186  168.1410 H       1  UNL1        0.1501
     17 H         138.8601  138.7809  168.2659 H       1  UNL1        0.1549
     18 S         138.2561  140.7411  162.2241 S.O2    1  UNL1        0.0737
     19 O         137.0312  141.5334  162.5732 O.2     1  UNL1       -0.1499
     20 O         139.4810  139.9489  161.8749 O.2     1  UNL1       -0.1499
     21 N         137.9838  140.9629  160.7658 N.pl3   1  UNL1       -0.2128
     22 H         137.3649  140.3674  160.2845 H       1  UNL1        0.1738
     23 C         138.6544  142.0920  160.0408 C.ar    1  UNL1        0.0923
     24 C         139.4194  143.1279  160.8099 C.ar    1  UNL1        0.0204
     25 C         140.0900  144.2569  160.0849 C.ar    1  UNL1        0.0311
     26 C         139.9956  144.3499  158.5908 C.ar    1  UNL1        0.1425
     27 F         140.6663  145.4790  157.8658 F       1  UNL1       -0.2041
     28 C         139.2307  143.3139  157.8216 C.ar    1  UNL1        0.0606
     29 C         138.5601  142.1850  158.5466 C.ar    1  UNL1        0.1568
     30 F         137.7952  141.1489  157.7775 F       1  UNL1       -0.2027
     31 C         141.8153  141.9471  171.3871 C.3     1  UNL1        0.0022
     32 C         140.7403  141.3264  170.5449 C.3     1  UNL1        0.0269
@<TRIPOS>BOND
     1    31    32    1
     2    32     1    1
     3     1     2    1
     4     1     3    1
     5     3     4   am
     6     4     5    2
     7     4     6    1
     8     6     7   ar
     9     7     8   ar
    10     8    18    1
    11    18    19    2
    12    18    20    2
    13    18    21    1
    14    21    23    1
    15    23    24   ar
    16    24    25   ar
    17    25    26   ar
    18    26    27    1
    19    26    28   ar
    20    28    29   ar
    21    29    30    1
    22     8     9   ar
    23     9    10   ar
    24    10    11    1
    25    10    12   ar
    26    12    13    1
    27    13    14   am
    28    14    15    2
    29    14     1    1
    30    12     6   ar
    31    29    23   ar
    32     3    16    1
    33    21    22    1
    34    13    17    1
@<TRIPOS>MOLECULE
*****
 32 34 0 0 0
SMALL
GASTEIGER

@<TRIPOS>ATOM
      1 C         140.8081  140.7973  167.9458 C.3     1  UNL1        0.1261
      2 C         139.5838  140.0900  168.4466 C.3     1  UNL1        0.0290
      3 N         139.7863  141.1133  166.8941 N.am    1  UNL1       -0.2963
      4 C         139.9488  141.9340  165.6490 C.2     1  UNL1        0.2474
      5 O         138.7252  142.0647  164.7914 O.2     1  UNL1       -0.2701
      6 C         141.1731  142.6413  165.1482 C.ar    1  UNL1        0.0690
      7 C         140.9050  143.3518  163.8546 C.ar    1  UNL1        0.0260
      8 C         142.0010  144.1235  163.1816 C.ar    1  UNL1        0.1262
      9 C         143.3653  144.1848  163.8021 C.ar    1  UNL1        0.0328
     10 C         143.6335  143.4744  165.0957 C.ar    1  UNL1        0.0726
     11 CL        144.9977  143.5357  165.7162 Cl      1  UNL1       -0.0809
     12 C         142.5374  142.7026  165.7687 C.ar    1  UNL1        0.0655
     13 N         143.0142  142.0718  167.0433 N.am    1  UNL1       -0.2819
     14 C         142.2447  141.2238  168.0122 C.2     1  UNL1        0.2420
     15 O         143.0133  140.7382  169.2053 O.2     1  UNL1       -0.2731
     16 H         138.8907  140.7317  167.0403 H       1  UNL1        0.1501
     17 H         143.9570  142.2360  167.2746 H       1  UNL1        0.1549
     18 S         141.7329  144.8340  161.8880 S.O2    1  UNL1        0.0737
     19 O         142.9305  144.1705  161.2754 O.2     1  UNL1       -0.1499
     20 O         140.5352  145.4975  162.5006 O.2     1  UNL1       -0.1499
     21 N         141.4648  145.5444  160.5944 N.pl3   1  UNL1       -0.2128
     22 H         141.7440  146.4816  160.4805 H       1  UNL1        0.1738
     23 C         140.7713  144.8270  159.4744 C.ar    1  UNL1        0.0923
     24 C         139.7951  143.7292  159.7776 C.ar    1  UNL1        0.0204
     25 C         139.1017  143.0118  158.6576 C.ar    1  UNL1        0.0311
     26 C         139.3843  143.3922  157.2344 C.ar    1  UNL1        0.1425
     27 F         138.6908  142.6747  156.1144 F       1  UNL1       -0.2041
     28 C         140.3605  144.4900  156.9313 C.ar    1  UNL1        0.0606
     29 C         141.0539  145.2074  158.0512 C.ar    1  UNL1        0.1568
     30 F         142.0301  146.3053  157.7481 F       1  UNL1       -0.2027
     31 C         140.3175  139.9083  170.3373 C.3     1  UNL1        0.0022
     32 C         141.2850  140.1664  169.2204 C.3     1  UNL1        0.0269
@<TRIPOS>BOND
     1    31    32    1
     2    32     1    1
     3     1     2    1
     4     1     3    1
     5     3     4   am
     6     4     5    2
     7     4     6    1
     8     6     7   ar
     9     7     8   ar
    10     8    18    1
    11    18    19    2
    12    18    20    2
    13    18    21    1
    14    21    23    1
    15    23    24   ar
    16    24    25   ar
    17    25    26   ar
    18    26    27    1
    19    26    28   ar
    20    28    29   ar
    21    29    30    1
    22     8     9   ar
    23     9    10   ar
    24    10    11    1
    25    10    12   ar
    26    12    13    1
    27    13    14   am
    28    14    15    2
    29    14     1    1
    30    12     6   ar
    31    29    23   ar
    32     3    16    1
    33    21    22    1
    34    13    17    1
@<TRIPOS>MOLECULE
*****
 32 34 0 0 0
SMALL
GASTEIGER

@<TRIPOS>ATOM
      1 C         141.6871  140.6476  167.5185 C.3     1  UNL1        0.1261
      2 C         142.5997  139.5032  167.8464 C.3     1  UNL1        0.0290
      3 N         142.5635  140.5611  166.3042 N.am    1  UNL1       -0.2963
      4 C         142.5343  141.4096  165.0675 C.2     1  UNL1        0.2474
      5 O         143.5525  141.0685  164.0201 O.2     1  UNL1       -0.2701
      6 C         141.6217  142.5539  164.7396 C.ar    1  UNL1        0.0690
      7 C         141.9311  143.1326  163.3908 C.ar    1  UNL1        0.0260
      8 C         141.1315  144.2899  162.8699 C.ar    1  UNL1        0.1262
      9 C         140.0226  144.8685  163.6978 C.ar    1  UNL1        0.0328
     10 C         139.7132  144.2898  165.0466 C.ar    1  UNL1        0.0726
     11 CL        138.6042  144.8684  165.8745 Cl      1  UNL1       -0.0809
     12 C         140.5127  143.1325  165.5675 C.ar    1  UNL1        0.0655
     13 N         140.0425  142.7096  166.9278 N.am    1  UNL1       -0.2819
     14 C         140.5651  141.6038  167.7960 C.2     1  UNL1        0.2420
     15 O         139.8746  141.4313  169.1163 O.2     1  UNL1       -0.2731
     16 H         143.2483  139.8541  166.3211 H       1  UNL1        0.1501
     17 H         139.2916  143.2263  167.2998 H       1  UNL1        0.1549
     18 S         141.4409  144.8686  161.5210 S.O2    1  UNL1        0.0737
     19 O         142.5122  143.8373  161.3243 O.2     1  UNL1       -0.1499
     20 O         140.3697  145.8999  161.7177 O.2     1  UNL1       -0.1499
     21 N         141.7503  145.4473  160.1722 N.pl3   1  UNL1       -0.2128
     22 H         142.3997  146.1826  160.0892 H       1  UNL1        0.1738
     23 C         141.0704  144.9056  158.9497 C.ar    1  UNL1        0.0923
     24 C         139.9948  143.8691  159.0870 C.ar    1  UNL1        0.0204
     25 C         139.3149  143.3275  157.8646 C.ar    1  UNL1        0.0311
     26 C         139.7105  143.8224  156.5049 C.ar    1  UNL1        0.1425
     27 F         139.0305  143.2808  155.2825 F       1  UNL1       -0.2041
     28 C         140.7861  144.8589  156.3677 C.ar    1  UNL1        0.0606
     29 C         141.4660  145.4005  157.5901 C.ar    1  UNL1        0.1568
     30 F         142.5416  146.4370  157.4529 F       1  UNL1       -0.2027
     31 C         142.1105  139.4022  169.7590 C.3     1  UNL1        0.0022
     32 C         141.2169  140.2247  168.8787 C.3     1  UNL1        0.0269
@<TRIPOS>BOND
     1    31    32    1
     2    32     1    1
     3     1     2    1
     4     1     3    1
     5     3     4   am
     6     4     5    2
     7     4     6    1
     8     6     7   ar
     9     7     8   ar
    10     8    18    1
    11    18    19    2
    12    18    20    2
    13    18    21    1
    14    21    23    1
    15    23    24   ar
    16    24    25   ar
    17    25    26   ar
    18    26    27    1
    19    26    28   ar
    20    28    29   ar
    21    29    30    1
    22     8     9   ar
    23     9    10   ar
    24    10    11    1
    25    10    12   ar
    26    12    13    1
    27    13    14   am
    28    14    15    2
    29    14     1    1
    30    12     6   ar
    31    29    23   ar
    32     3    16    1
    33    21    22    1
    34    13    17    1
@<TRIPOS>MOLECULE
*****
 32 34 0 0 0
SMALL
GASTEIGER

@<TRIPOS>ATOM
      1 C         140.6789  139.9708  169.0629 C.3     1  UNL1        0.1261
      2 C         139.6488  140.2413  170.1192 C.3     1  UNL1        0.0290
      3 N         139.3867  139.7633  168.3298 N.am    1  UNL1       -0.2963
      4 C         139.1767  139.3799  166.8950 C.2     1  UNL1        0.2474
      5 O         137.7474  139.2499  166.4586 O.2     1  UNL1       -0.2701
      6 C         140.2068  139.1094  165.8387 C.ar    1  UNL1        0.0690
      7 C         139.5683  138.7550  164.5285 C.ar    1  UNL1        0.0260
      8 C         140.4244  138.4466  163.3361 C.ar    1  UNL1        0.1262
      9 C         141.9190  138.4926  163.4538 C.ar    1  UNL1        0.0328
     10 C         142.5576  138.8471  164.7640 C.ar    1  UNL1        0.0726
     11 CL        144.0522  138.8931  164.8818 Cl      1  UNL1       -0.0809
     12 C         141.7014  139.1554  165.9564 C.ar    1  UNL1        0.0655
     13 N         142.5351  139.4833  167.1596 N.am    1  UNL1       -0.2819
     14 C         142.0801  139.8462  168.5421 C.2     1  UNL1        0.2420
     15 O         143.1703  140.1208  169.5350 O.2     1  UNL1       -0.2731
     16 H         138.5683  139.8962  168.8607 H       1  UNL1        0.1501
     17 H         143.5098  139.4569  167.0239 H       1  UNL1        0.1549
     18 S         139.7859  138.0922  162.0258 S.O2    1  UNL1        0.0737
     19 O         141.0646  138.4206  161.3139 O.2     1  UNL1       -0.1499
     20 O         138.5071  137.7638  162.7377 O.2     1  UNL1       -0.1499
     21 N         139.1474  137.7378  160.7156 N.pl3   1  UNL1       -0.2128
     22 H         138.7751  136.8369  160.5771 H       1  UNL1        0.1738
     23 C         139.0762  138.7559  159.6162 C.ar    1  UNL1        0.0923
     24 C         139.8245  138.5308  158.3359 C.ar    1  UNL1        0.0204
     25 C         139.7533  139.5489  157.2367 C.ar    1  UNL1        0.0311
     26 C         138.9336  140.7920  157.4177 C.ar    1  UNL1        0.1425
     27 F         138.8624  141.8101  156.3184 F       1  UNL1       -0.2041
     28 C         138.1853  141.0171  158.6981 C.ar    1  UNL1        0.0606
     29 C         138.2566  139.9990  159.7973 C.ar    1  UNL1        0.1568
     30 F         137.5082  140.2241  161.0777 F       1  UNL1       -0.2027
     31 C         140.9041  141.0365  171.4216 C.3     1  UNL1        0.0022
     32 C         141.5125  140.2987  170.2660 C.3     1  UNL1        0.0269
@<TRIPOS>BOND
     1    31    32    1
     2    32     1    1
     3     1     2    1
     4     1     3    1
     5     3     4   am
     6     4     5    2
     7     4     6    1
     8     6     7   ar
     9     7     8   ar
    10     8    18    1
    11    18    19    2
    12    18    20    2
    13    18    21    1
    14    21    23    1
    15    23    24   ar
    16    24    25   ar
    17    25    26   ar
    18    26    27    1
    19    26    28   ar
    20    28    29   ar
    21    29    30    1
    22     8     9   ar
    23     9    10   ar
    24    10    11    1
    25    10    12   ar
    26    12    13    1
    27    13    14   am
    28    14    15    2
    29    14     1    1
    30    12     6   ar
    31    29    23   ar
    32     3    16    1
    33    21    22    1
    34    13    17    1
@<TRIPOS>MOLECULE
*****
 32 34 0 0 0
SMALL
GASTEIGER

@<TRIPOS>ATOM
      1 C         140.2102  141.4826  168.7917 C.3     1  UNL1        0.1261
      2 C         140.9631  142.6905  169.2651 C.3     1  UNL1        0.0290
      3 N         140.8762  141.9725  167.5401 N.am    1  UNL1       -0.2963
      4 C         140.8065  141.3966  166.1568 C.2     1  UNL1        0.2474
      5 O         141.5938  142.1250  165.1082 O.2     1  UNL1       -0.2701
      6 C         140.0537  140.1887  165.6834 C.ar    1  UNL1        0.0690
      7 C         140.2546  139.9585  164.2149 C.ar    1  UNL1        0.0260
      8 C         139.5863  138.7978  163.5394 C.ar    1  UNL1        0.1262
      9 C         138.7172  137.8674  164.3324 C.ar    1  UNL1        0.0328
     10 C         138.5163  138.0976  165.8010 C.ar    1  UNL1        0.0726
     11 CL        137.6472  137.1671  166.5940 Cl      1  UNL1       -0.0809
     12 C         139.1846  139.2582  166.4764 C.ar    1  UNL1        0.0655
     13 N         138.8537  139.3060  167.9387 N.am    1  UNL1       -0.2819
     14 C         139.3101  140.2958  168.9692 C.2     1  UNL1        0.2420
     15 O         138.7988  140.0691  170.3609 O.2     1  UNL1       -0.2731
     16 H         141.4326  142.7786  167.6397 H       1  UNL1        0.1501
     17 H         138.2581  138.5933  168.2654 H       1  UNL1        0.1549
     18 S         139.7872  138.5676  162.0708 S.O2    1  UNL1        0.0737
     19 O         138.4524  137.8874  161.9949 O.2     1  UNL1       -0.1499
     20 O         141.1219  139.2477  162.1467 O.2     1  UNL1       -0.1499
     21 N         139.9880  138.3373  160.6023 N.pl3   1  UNL1       -0.2128
     22 H         140.4576  137.5302  160.2902 H       1  UNL1        0.1738
     23 C         139.4733  139.3367  159.6091 C.ar    1  UNL1        0.0923
     24 C         138.9884  140.6770  160.0763 C.ar    1  UNL1        0.0204
     25 C         138.4737  141.6764  159.0832 C.ar    1  UNL1        0.0311
     26 C         138.4439  141.3354  157.6228 C.ar    1  UNL1        0.1425
     27 F         137.9292  142.3348  156.6296 F       1  UNL1       -0.2041
     28 C         138.9288  139.9950  157.1555 C.ar    1  UNL1        0.0606
     29 C         139.4435  138.9957  158.1487 C.ar    1  UNL1        0.1568
     30 F         139.9284  137.6553  157.6814 F       1  UNL1       -0.2027
     31 C         140.8699  142.0940  171.2291 C.3     1  UNL1        0.0022
     32 C         139.8793  141.5303  170.2540 C.3     1  UNL1        0.0269
@<TRIPOS>BOND
     1    31    32    1
     2    32     1    1
     3     1     2    1
     4     1     3    1
     5     3     4   am
     6     4     5    2
     7     4     6    1
     8     6     7   ar
     9     7     8   ar
    10     8    18    1
    11    18    19    2
    12    18    20    2
    13    18    21    1
    14    21    23    1
    15    23    24   ar
    16    24    25   ar
    17    25    26   ar
    18    26    27    1
    19    26    28   ar
    20    28    29   ar
    21    29    30    1
    22     8     9   ar
    23     9    10   ar
    24    10    11    1
    25    10    12   ar
    26    12    13    1
    27    13    14   am
    28    14    15    2
    29    14     1    1
    30    12     6   ar
    31    29    23   ar
    32     3    16    1
    33    21    22    1
    34    13    17    1
@<TRIPOS>MOLECULE
*****
 32 34 0 0 0
SMALL
GASTEIGER

@<TRIPOS>ATOM
      1 C         141.2106  140.8392  167.8743 C.3     1  UNL1        0.1261
      2 C         140.1776  140.9804  168.9527 C.3     1  UNL1        0.0290
      3 N         140.3363  141.9427  167.3566 N.am    1  UNL1       -0.2963
      4 C         140.4638  142.7143  166.0766 C.2     1  UNL1        0.2474
      5 O         139.4201  143.7664  165.8443 O.2     1  UNL1       -0.2701
      6 C         141.4968  142.5731  164.9982 C.ar    1  UNL1        0.0690
      7 C         141.2589  143.5451  163.8808 C.ar    1  UNL1        0.0260
      8 C         142.1819  143.5693  162.6987 C.ar    1  UNL1        0.1262
      9 C         143.3427  142.6215  162.6339 C.ar    1  UNL1        0.0328
     10 C         143.5805  141.6495  163.7513 C.ar    1  UNL1        0.0726
     11 CL        144.7413  140.7016  163.6866 Cl      1  UNL1       -0.0809
     12 C         142.6576  141.6253  164.9334 C.ar    1  UNL1        0.0655
     13 N         143.0720  140.5846  165.9311 N.am    1  UNL1       -0.2819
     14 C         142.4281  140.2347  167.2399 C.2     1  UNL1        0.2420
     15 O         143.0890  139.1351  168.0171 O.2     1  UNL1       -0.2731
     16 H         139.5788  142.1937  167.9331 H       1  UNL1        0.1501
     17 H         143.8725  140.0622  165.6958 H       1  UNL1        0.1549
     18 S         141.9441  144.5413  161.5812 S.O2    1  UNL1        0.0737
     19 O         140.8540  145.1925  162.3797 O.2     1  UNL1       -0.1499
     20 O         143.0342  143.8901  160.7827 O.2     1  UNL1       -0.1499
     21 N         141.7063  145.5133  160.4638 N.pl3   1  UNL1       -0.2128
     22 H         141.8351  146.4777  160.6145 H       1  UNL1        0.1738
     23 C         141.2722  145.0161  159.1168 C.ar    1  UNL1        0.0923
     24 C         141.9980  145.4631  157.8826 C.ar    1  UNL1        0.0204
     25 C         141.5639  144.9659  156.5357 C.ar    1  UNL1        0.0311
     26 C         140.4039  144.0215  156.4230 C.ar    1  UNL1        0.1425
     27 F         139.9697  143.5243  155.0760 F       1  UNL1       -0.2041
     28 C         139.6780  143.5745  157.6572 C.ar    1  UNL1        0.0606
     29 C         140.1122  144.0718  159.0041 C.ar    1  UNL1        0.1568
     30 F         139.3863  143.6247  160.2383 F       1  UNL1       -0.2027
     31 C         140.9494  139.7307  170.2095 C.3     1  UNL1        0.0022
     32 C         141.6250  139.7985  168.8720 C.3     1  UNL1        0.0269
@<TRIPOS>BOND
     1    31    32    1
     2    32     1    1
     3     1     2    1
     4     1     3    1
     5     3     4   am
     6     4     5    2
     7     4     6    1
     8     6     7   ar
     9     7     8   ar
    10     8    18    1
    11    18    19    2
    12    18    20    2
    13    18    21    1
    14    21    23    1
    15    23    24   ar
    16    24    25   ar
    17    25    26   ar
    18    26    27    1
    19    26    28   ar
    20    28    29   ar
    21    29    30    1
    22     8     9   ar
    23     9    10   ar
    24    10    11    1
    25    10    12   ar
    26    12    13    1
    27    13    14   am
    28    14    15    2
    29    14     1    1
    30    12     6   ar
    31    29    23   ar
    32     3    16    1
    33    21    22    1
    34    13    17    1
@<TRIPOS>MOLECULE
*****
 32 34 0 0 0
SMALL
GASTEIGER

@<TRIPOS>ATOM
      1 C         139.1374  139.7302  158.7746 C.3     1  UNL1        0.1261
      2 C         139.5847  138.6740  157.8080 C.3     1  UNL1        0.0290
      3 N         139.8013  138.7223  159.6653 N.am    1  UNL1       -0.2963
      4 C         139.9749  138.7612  161.1547 C.2     1  UNL1        0.2474
      5 O         140.6906  137.5887  161.7573 O.2     1  UNL1       -0.2701
      6 C         139.5276  139.8174  162.1213 C.ar    1  UNL1        0.0690
      7 C         139.9030  139.4654  163.5302 C.ar    1  UNL1        0.0260
      8 C         139.5469  140.3917  164.6550 C.ar    1  UNL1        0.1262
      9 C         138.8153  141.6700  164.3708 C.ar    1  UNL1        0.0328
     10 C         138.4399  142.0220  162.9619 C.ar    1  UNL1        0.0726
     11 CL        137.7084  143.3004  162.6777 Cl      1  UNL1       -0.0809
     12 C         138.7960  141.0957  161.8371 C.ar    1  UNL1        0.0655
     13 N         138.3312  141.6335  160.5162 N.am    1  UNL1       -0.2819
     14 C         138.4831  141.0258  159.1532 C.2     1  UNL1        0.2420
     15 O         137.9042  141.8185  158.0190 O.2     1  UNL1       -0.2731
     16 H         140.1722  137.9306  159.2125 H       1  UNL1        0.1501
     17 H         137.8647  142.4999  160.5480 H       1  UNL1        0.1549
     18 S         139.9223  140.0397  166.0640 S.O2    1  UNL1        0.0737
     19 O         138.4730  139.8560  166.4042 O.2     1  UNL1       -0.1499
     20 O         141.3716  140.2234  165.7238 O.2     1  UNL1       -0.1499
     21 N         140.2977  139.6878  167.4729 N.pl3   1  UNL1       -0.2128
     22 H         140.0515  138.8093  167.8431 H       1  UNL1        0.1738
     23 C         141.0481  140.6742  168.3179 C.ar    1  UNL1        0.0923
     24 C         140.4937  142.0511  168.5343 C.ar    1  UNL1        0.0204
     25 C         141.2441  143.0374  169.3792 C.ar    1  UNL1        0.0311
     26 C         142.5488  142.6469  170.0078 C.ar    1  UNL1        0.1425
     27 F         143.2992  143.6333  170.8528 F       1  UNL1       -0.2041
     28 C         143.1032  141.2700  169.7915 C.ar    1  UNL1        0.0606
     29 C         142.3528  140.2837  168.9465 C.ar    1  UNL1        0.1568
     30 F         142.9072  138.9067  168.7301 F       1  UNL1       -0.2027
     31 C         138.9444  139.5005  156.1939 C.3     1  UNL1        0.0022
     32 C         138.6726  140.2679  157.4537 C.3     1  UNL1        0.0269
@<TRIPOS>BOND
     1    31    32    1
     2    32     1    1
     3     1     2    1
     4     1     3    1
     5     3     4   am
     6     4     5    2
     7     4     6    1
     8     6     7   ar
     9     7     8   ar
    10     8    18    1
    11    18    19    2
    12    18    20    2
    13    18    21    1
    14    21    23    1
    15    23    24   ar
    16    24    25   ar
    17    25    26   ar
    18    26    27    1
    19    26    28   ar
    20    28    29   ar
    21    29    30    1
    22     8     9   ar
    23     9    10   ar
    24    10    11    1
    25    10    12   ar
    26    12    13    1
    27    13    14   am
    28    14    15    2
    29    14     1    1
    30    12     6   ar
    31    29    23   ar
    32     3    16    1
    33    21    22    1
    34    13    17    1
