@<TRIPOS>MOLECULE
*****
 40 43 0 0 0
SMALL
GASTEIGER

@<TRIPOS>ATOM
      1 C         138.2929  140.2747  162.4421 C.ar    1  UNL1        0.2220
      2 N         137.5364  140.2952  161.1469 N.ar    1  UNL1       -0.2110
      3 C         138.2385  139.9651  159.8631 C.ar    1  UNL1        0.1160
      4 C         139.6969  139.6147  159.8744 C.ar    1  UNL1        0.1085
      5 CL        140.3990  139.2846  158.5906 Cl      1  UNL1       -0.0777
      6 C         140.4533  139.5942  161.1696 C.ar    1  UNL1        0.1472
      7 N         139.7513  139.9243  162.4534 N.ar    1  UNL1       -0.1976
      8 N         137.5908  140.6047  163.7259 N.pl3   1  UNL1       -0.2776
      9 H         136.6303  140.8207  163.7203 H       1  UNL1        0.1552
     10 C         139.3047  141.7227  165.3268 C.ar    1  UNL1        0.2413
     11 N         140.0661  141.7237  166.6192 N.ar    1  UNL1       -0.1957
     12 C         139.8751  140.6077  167.6030 C.ar    1  UNL1        0.1420
     13 N         138.9227  139.4907  167.2945 N.ar    1  UNL1       -0.2277
     14 C         138.1613  139.4897  166.0022 C.ar    1  UNL1        0.1196
     15 C         138.3523  140.6057  165.0183 C.ar    1  UNL1        0.1238
     16 C         140.6365  140.6087  168.8954 C.3     1  UNL1        0.0615
     17 C         141.8441  139.7333  169.0551 C.3     1  UNL1        0.0247
     18 C         142.6055  139.7342  170.3474 C.3     1  UNL1        0.0690
     19 N         142.1595  140.6106  171.4802 N.3     1  UNL1       -0.2974
     20 C         140.9519  141.4860  171.3205 C.3     1  UNL1        0.0690
     21 C         140.1904  141.4850  170.0281 C.3     1  UNL1        0.0247
     22 H         142.9420  141.2261  171.7022 H       1  UNL1        0.1232
     23 O         139.4957  142.8388  164.3430 O.3     1  UNL1       -0.4631
     24 C         137.6665  144.2514  163.1561 C.3     1  UNL1        0.0473
     25 C         138.5535  144.0059  164.3406 C.3     1  UNL1        0.1678
     26 C         138.4984  144.9277  165.5227 C.3     1  UNL1        0.0473
     27 N         141.9118  139.2438  161.1809 N.pl3   1  UNL1       -0.2961
     28 H         142.1969  138.3175  161.0075 H       1  UNL1        0.1537
     29 C         142.9359  140.3045  161.4564 C.ar    1  UNL1        0.0667
     30 C         143.3405  141.2566  160.3702 C.ar    1  UNL1        0.0159
     31 C         144.3647  142.3173  160.6457 C.ar    1  UNL1        0.0014
     32 C         144.9842  142.4261  162.0075 C.ar    1  UNL1        0.0014
     33 C         144.5796  141.4740  163.0937 C.ar    1  UNL1        0.0196
     34 C         143.5554  140.4132  162.8181 C.ar    1  UNL1        0.1189
     35 S         143.1508  139.4612  163.9044 S.O2    1  UNL1        0.0082
     36 O         143.7169  138.3189  163.1141 O.2     1  UNL1       -0.1686
     37 O         142.5847  140.6035  164.6947 O.2     1  UNL1       -0.1686
     38 C         142.7462  138.5091  164.9906 C.3     1  UNL1        0.1340
     39 C         141.4592  137.7467  164.8786 C.3     1  UNL1        0.0257
     40 C         143.6284  138.3195  166.1888 C.3     1  UNL1        0.0257
@<TRIPOS>BOND
     1    24    25    1
     2    25    26    1
     3    25    23    1
     4    23    10    1
     5    10    11   ar
     6    11    12   ar
     7    12    16    1
     8    16    17    1
     9    17    18    1
    10    18    19    1
    11    19    20    1
    12    20    21    1
    13    12    13   ar
    14    13    14   ar
    15    14    15   ar
    16    15     8    1
    17     8     1    1
    18     1     2   ar
    19     2     3   ar
    20     3     4   ar
    21     4     5    1
    22     4     6   ar
    23     6    27    1
    24    27    29    1
    25    29    30   ar
    26    30    31   ar
    27    31    32   ar
    28    32    33   ar
    29    33    34   ar
    30    34    35    1
    31    35    36    2
    32    35    37    2
    33    35    38    1
    34    38    39    1
    35    38    40    1
    36     6     7   ar
    37    15    10   ar
    38     7     1   ar
    39    21    16    1
    40    34    29   ar
    41    19    22    1
    42     8     9    1
    43    27    28    1
@<TRIPOS>MOLECULE
*****
 40 43 0 0 0
SMALL
GASTEIGER

@<TRIPOS>ATOM
      1 C         143.5477  139.4174  161.9158 C.ar    1  UNL1        0.2220
      2 N         144.0300  139.0991  160.5315 N.ar    1  UNL1       -0.2110
      3 C         143.0447  138.7486  159.4561 C.ar    1  UNL1        0.1160
      4 C         141.5772  138.7163  159.7650 C.ar    1  UNL1        0.1085
      5 CL        140.5920  138.3658  158.6897 Cl      1  UNL1       -0.0777
      6 C         141.0950  139.0346  161.1493 C.ar    1  UNL1        0.1472
      7 N         142.0802  139.3851  162.2246 N.ar    1  UNL1       -0.1976
      8 N         144.5330  139.7679  162.9912 N.pl3   1  UNL1       -0.2776
      9 H         145.4930  139.5993  162.8531 H       1  UNL1        0.1552
     10 C         144.2241  141.8457  164.5200 C.ar    1  UNL1        0.2413
     11 N         143.7465  142.4529  165.8057 N.ar    1  UNL1       -0.1957
     12 C         143.1002  141.5897  166.8484 C.ar    1  UNL1        0.1420
     13 N         142.9314  140.1192  166.6053 N.ar    1  UNL1       -0.2277
     14 C         143.4090  139.5120  165.3195 C.ar    1  UNL1        0.1196
     15 C         144.0554  140.3752  164.2769 C.ar    1  UNL1        0.1238
     16 C         142.6226  142.1970  168.1341 C.3     1  UNL1        0.0615
     17 C         143.5797  142.3919  169.2726 C.3     1  UNL1        0.0247
     18 C         143.1021  142.9992  170.5583 C.3     1  UNL1        0.0690
     19 N         141.6675  143.4116  170.7056 N.3     1  UNL1       -0.2974
     20 C         140.7104  143.2168  169.5672 C.3     1  UNL1        0.0690
     21 C         141.1880  142.6095  168.2814 C.3     1  UNL1        0.0247
     22 H         141.6684  144.4084  170.9222 H       1  UNL1        0.1232
     23 O         144.8705  142.7089  163.4774 O.3     1  UNL1       -0.4631
     24 C         143.7883  145.0515  163.1754 C.3     1  UNL1        0.0473
     25 C         144.0382  143.6612  162.6709 C.3     1  UNL1        0.1678
     26 C         143.4559  143.2231  161.3597 C.3     1  UNL1        0.0473
     27 N         139.6274  139.0023  161.4582 N.pl3   1  UNL1       -0.2961
     28 H         138.9697  139.0213  160.7259 H       1  UNL1        0.1537
     29 C         139.1621  138.9412  162.8828 C.ar    1  UNL1        0.0667
     30 C         139.2364  137.6493  163.6414 C.ar    1  UNL1        0.0159
     31 C         138.7710  137.5882  165.0660 C.ar    1  UNL1        0.0014
     32 C         138.2313  138.8191  165.7322 C.ar    1  UNL1        0.0014
     33 C         138.1570  140.1110  164.9736 C.ar    1  UNL1        0.0196
     34 C         138.6224  140.1721  163.5489 C.ar    1  UNL1        0.1189
     35 S         138.5481  141.4640  162.7904 S.O2    1  UNL1        0.0082
     36 O         137.1555  141.1243  162.3483 O.2     1  UNL1       -0.1686
     37 O         139.9406  141.8037  163.2325 O.2     1  UNL1       -0.1686
     38 C         138.4737  142.7559  162.0318 C.3     1  UNL1        0.1340
     39 C         137.9144  143.9817  162.6912 C.3     1  UNL1        0.0257
     40 C         138.9587  142.8221  160.6140 C.3     1  UNL1        0.0257
@<TRIPOS>BOND
     1    24    25    1
     2    25    26    1
     3    25    23    1
     4    23    10    1
     5    10    11   ar
     6    11    12   ar
     7    12    16    1
     8    16    17    1
     9    17    18    1
    10    18    19    1
    11    19    20    1
    12    20    21    1
    13    12    13   ar
    14    13    14   ar
    15    14    15   ar
    16    15     8    1
    17     8     1    1
    18     1     2   ar
    19     2     3   ar
    20     3     4   ar
    21     4     5    1
    22     4     6   ar
    23     6    27    1
    24    27    29    1
    25    29    30   ar
    26    30    31   ar
    27    31    32   ar
    28    32    33   ar
    29    33    34   ar
    30    34    35    1
    31    35    36    2
    32    35    37    2
    33    35    38    1
    34    38    39    1
    35    38    40    1
    36     6     7   ar
    37    15    10   ar
    38     7     1   ar
    39    21    16    1
    40    34    29   ar
    41    19    22    1
    42     8     9    1
    43    27    28    1
@<TRIPOS>MOLECULE
*****
 40 43 0 0 0
SMALL
GASTEIGER

@<TRIPOS>ATOM
      1 C         140.5406  138.6969  162.5523 C.ar    1  UNL1        0.2220
      2 N         139.8835  137.8234  161.5250 N.ar    1  UNL1       -0.2110
      3 C         139.0870  138.4410  160.4141 C.ar    1  UNL1        0.1160
      4 C         138.9476  139.9322  160.3305 C.ar    1  UNL1        0.1085
      5 CL        138.1511  140.5499  159.2196 Cl      1  UNL1       -0.0777
      6 C         139.6047  140.8057  161.3578 C.ar    1  UNL1        0.1472
      7 N         140.4012  140.1880  162.4687 N.ar    1  UNL1       -0.1976
      8 N         141.3371  138.0792  163.6632 N.pl3   1  UNL1       -0.2776
      9 H         141.7708  137.2054  163.5310 H       1  UNL1        0.1552
     10 C         142.8275  139.2108  165.4656 C.ar    1  UNL1        0.2413
     11 N         142.9631  139.9246  166.7778 N.ar    1  UNL1       -0.1957
     12 C         141.7439  140.2206  167.6001 C.ar    1  UNL1        0.1420
     13 N         140.3892  139.8029  167.1100 N.ar    1  UNL1       -0.2277
     14 C         140.2536  139.0891  165.7978 C.ar    1  UNL1        0.1196
     15 C         141.4727  138.7931  164.9755 C.ar    1  UNL1        0.1238
     16 C         141.8796  140.9345  168.9124 C.3     1  UNL1        0.0615
     17 C         142.8201  142.0959  169.0407 C.3     1  UNL1        0.0247
     18 C         142.9558  142.8097  170.3529 C.3     1  UNL1        0.0690
     19 N         142.1509  142.3621  171.5370 N.3     1  UNL1       -0.2974
     20 C         141.2103  141.2007  171.4087 C.3     1  UNL1        0.0690
     21 C         141.0747  140.4869  170.0963 C.3     1  UNL1        0.0247
     22 H         141.5919  143.1624  171.8325 H       1  UNL1        0.1232
     23 O         144.0466  138.9147  164.6433 O.3     1  UNL1       -0.4631
     24 C         145.3882  141.0690  164.0873 C.3     1  UNL1        0.0473
     25 C         144.5370  139.9173  163.6412 C.3     1  UNL1        0.1678
     26 C         144.1760  139.7682  162.1929 C.3     1  UNL1        0.0473
     27 N         139.4653  142.2969  161.2741 N.pl3   1  UNL1       -0.2961
     28 H         139.5254  142.7488  160.4015 H       1  UNL1        0.1537
     29 C         139.2343  143.0996  162.5200 C.ar    1  UNL1        0.0667
     30 C         137.8631  143.1687  163.1242 C.ar    1  UNL1        0.0159
     31 C         137.6321  143.9714  164.3701 C.ar    1  UNL1        0.0014
     32 C         138.7723  144.7051  165.0118 C.ar    1  UNL1        0.0014
     33 C         140.1434  144.6360  164.4076 C.ar    1  UNL1        0.0196
     34 C         140.3744  143.8332  163.1617 C.ar    1  UNL1        0.1189
     35 S         141.7456  143.7642  162.5575 S.O2    1  UNL1        0.0082
     36 O         141.3150  144.7062  161.4725 O.2     1  UNL1       -0.1686
     37 O         142.1762  142.8221  163.6424 O.2     1  UNL1       -0.1686
     38 C         143.1168  143.6951  161.9532 C.3     1  UNL1        0.1340
     39 C         143.3204  143.0168  160.6309 C.3     1  UNL1        0.0257
     40 C         144.2844  144.3042  162.6713 C.3     1  UNL1        0.0257
@<TRIPOS>BOND
     1    24    25    1
     2    25    26    1
     3    25    23    1
     4    23    10    1
     5    10    11   ar
     6    11    12   ar
     7    12    16    1
     8    16    17    1
     9    17    18    1
    10    18    19    1
    11    19    20    1
    12    20    21    1
    13    12    13   ar
    14    13    14   ar
    15    14    15   ar
    16    15     8    1
    17     8     1    1
    18     1     2   ar
    19     2     3   ar
    20     3     4   ar
    21     4     5    1
    22     4     6   ar
    23     6    27    1
    24    27    29    1
    25    29    30   ar
    26    30    31   ar
    27    31    32   ar
    28    32    33   ar
    29    33    34   ar
    30    34    35    1
    31    35    36    2
    32    35    37    2
    33    35    38    1
    34    38    39    1
    35    38    40    1
    36     6     7   ar
    37    15    10   ar
    38     7     1   ar
    39    21    16    1
    40    34    29   ar
    41    19    22    1
    42     8     9    1
    43    27    28    1
@<TRIPOS>MOLECULE
*****
 40 43 0 0 0
SMALL
GASTEIGER

@<TRIPOS>ATOM
      1 C         143.4442  140.5880  162.1585 C.ar    1  UNL1        0.2220
      2 N         144.1111  140.8655  160.8438 N.ar    1  UNL1       -0.2110
      3 C         143.2852  141.2315  159.6464 C.ar    1  UNL1        0.1160
      4 C         141.7924  141.3200  159.7636 C.ar    1  UNL1        0.1085
      5 CL        140.9664  141.6860  158.5661 Cl      1  UNL1       -0.0777
      6 C         141.1255  141.0424  161.0782 C.ar    1  UNL1        0.1472
      7 N         141.9514  140.6765  162.2756 N.ar    1  UNL1       -0.1976
      8 N         144.2701  140.2220  163.3560 N.pl3   1  UNL1       -0.2776
      9 H         145.2092  139.9495  163.2416 H       1  UNL1        0.1552
     10 C         143.5754  141.5764  165.4615 C.ar    1  UNL1        0.2413
     11 N         142.9704  141.6255  166.8332 N.ar    1  UNL1       -0.1957
     12 C         142.4552  140.3695  167.4711 C.ar    1  UNL1        0.1420
     13 N         142.5450  139.0643  166.7374 N.ar    1  UNL1       -0.2277
     14 C         143.1499  139.0152  165.3657 C.ar    1  UNL1        0.1196
     15 C         143.6651  140.2712  164.7277 C.ar    1  UNL1        0.1238
     16 C         141.8503  140.4186  168.8429 C.3     1  UNL1        0.0615
     17 C         140.3998  140.0884  169.0351 C.3     1  UNL1        0.0247
     18 C         139.7948  140.1375  170.4068 C.3     1  UNL1        0.0690
     19 N         140.6403  140.5170  171.5863 N.3     1  UNL1       -0.2974
     20 C         142.0908  140.8472  171.3941 C.3     1  UNL1        0.0690
     21 C         142.6958  140.7981  170.0223 C.3     1  UNL1        0.0247
     22 H         140.6005  139.7356  172.2407 H       1  UNL1        0.1232
     23 O         144.0905  142.8324  164.8235 O.3     1  UNL1       -0.4631
     24 C         141.6515  143.5943  164.3538 C.3     1  UNL1        0.0473
     25 C         143.1285  143.8447  164.2762 C.3     1  UNL1        0.1678
     26 C         143.6433  145.1075  163.6514 C.3     1  UNL1        0.0473
     27 N         139.6327  141.1309  161.1954 N.pl3   1  UNL1       -0.2961
     28 H         139.0596  140.5902  160.6050 H       1  UNL1        0.1537
     29 C         139.0129  142.0431  162.2121 C.ar    1  UNL1        0.0667
     30 C         138.8228  143.4974  161.8979 C.ar    1  UNL1        0.0159
     31 C         138.2030  144.4096  162.9146 C.ar    1  UNL1        0.0014
     32 C         137.7734  143.8675  164.2456 C.ar    1  UNL1        0.0014
     33 C         137.9635  142.4132  164.5598 C.ar    1  UNL1        0.0196
     34 C         138.5833  141.5009  163.5430 C.ar    1  UNL1        0.1189
     35 S         138.7734  140.0466  163.8572 S.O2    1  UNL1        0.0082
     36 O         137.7548  139.6885  162.8159 O.2     1  UNL1       -0.1686
     37 O         139.7919  140.4047  164.8985 O.2     1  UNL1       -0.1686
     38 C         138.9635  138.5923  164.1714 C.3     1  UNL1        0.1340
     39 C         139.4532  137.6532  163.1091 C.3     1  UNL1        0.0257
     40 C         138.6639  138.0769  165.5479 C.3     1  UNL1        0.0257
@<TRIPOS>BOND
     1    24    25    1
     2    25    26    1
     3    25    23    1
     4    23    10    1
     5    10    11   ar
     6    11    12   ar
     7    12    16    1
     8    16    17    1
     9    17    18    1
    10    18    19    1
    11    19    20    1
    12    20    21    1
    13    12    13   ar
    14    13    14   ar
    15    14    15   ar
    16    15     8    1
    17     8     1    1
    18     1     2   ar
    19     2     3   ar
    20     3     4   ar
    21     4     5    1
    22     4     6   ar
    23     6    27    1
    24    27    29    1
    25    29    30   ar
    26    30    31   ar
    27    31    32   ar
    28    32    33   ar
    29    33    34   ar
    30    34    35    1
    31    35    36    2
    32    35    37    2
    33    35    38    1
    34    38    39    1
    35    38    40    1
    36     6     7   ar
    37    15    10   ar
    38     7     1   ar
    39    21    16    1
    40    34    29   ar
    41    19    22    1
    42     8     9    1
    43    27    28    1
@<TRIPOS>MOLECULE
*****
 40 43 0 0 0
SMALL
GASTEIGER

@<TRIPOS>ATOM
      1 C         139.9722  138.7265  162.4069 C.ar    1  UNL1        0.2220
      2 N         139.7241  138.0465  161.0931 N.ar    1  UNL1       -0.2110
      3 C         139.7277  138.8447  159.8230 C.ar    1  UNL1        0.1160
      4 C         139.9793  140.3228  159.8669 C.ar    1  UNL1        0.1085
      5 CL        139.9828  141.1210  158.5969 Cl      1  UNL1       -0.0777
      6 C         140.2274  141.0028  161.1807 C.ar    1  UNL1        0.1472
      7 N         140.2238  140.2046  162.4507 N.ar    1  UNL1       -0.1976
      8 N         139.9687  137.9284  163.6769 N.pl3   1  UNL1       -0.2776
      9 H         139.8917  136.9476  163.6417 H       1  UNL1        0.1552
     10 C         141.4305  138.8339  165.6246 C.ar    1  UNL1        0.2413
     11 N         141.5443  139.5302  166.9483 N.ar    1  UNL1       -0.1957
     12 C         140.3102  140.0174  167.6480 C.ar    1  UNL1        0.1420
     13 N         138.9623  139.8082  167.0241 N.ar    1  UNL1       -0.2277
     14 C         138.8485  139.1119  165.7004 C.ar    1  UNL1        0.1196
     15 C         140.0826  138.6247  165.0007 C.ar    1  UNL1        0.1238
     16 C         140.4241  140.7137  168.9718 C.3     1  UNL1        0.0615
     17 C         140.0801  142.1693  169.0855 C.3     1  UNL1        0.0247
     18 C         140.1939  142.8656  170.4092 C.3     1  UNL1        0.0690
     19 N         140.6518  142.1064  171.6192 N.3     1  UNL1       -0.2974
     20 C         140.9958  140.6508  171.5054 C.3     1  UNL1        0.0690
     21 C         140.8819  139.9545  170.1817 C.3     1  UNL1        0.0247
     22 H         139.9068  142.1796  172.3121 H       1  UNL1        0.1232
     23 O         142.6646  138.3467  164.9249 O.3     1  UNL1       -0.4631
     24 C         143.9321  140.5801  164.5311 C.3     1  UNL1        0.0473
     25 C         143.4236  139.2666  164.0152 C.3     1  UNL1        0.1678
     26 C         143.6740  138.8731  162.5895 C.3     1  UNL1        0.0473
     27 N         140.4790  142.4809  161.2245 N.pl3   1  UNL1       -0.2961
     28 H         139.8473  143.1008  160.7932 H       1  UNL1        0.1537
     29 C         141.6930  143.0146  161.9255 C.ar    1  UNL1        0.0667
     30 C         143.0332  142.9552  161.2545 C.ar    1  UNL1        0.0159
     31 C         144.2472  143.4888  161.9555 C.ar    1  UNL1        0.0014
     32 C         144.1210  144.0820  163.3275 C.ar    1  UNL1        0.0014
     33 C         142.7807  144.1414  163.9985 C.ar    1  UNL1        0.0196
     34 C         141.5667  143.6076  163.2974 C.ar    1  UNL1        0.1189
     35 S         140.2265  143.6671  163.9684 S.O2    1  UNL1        0.0082
     36 O         139.8212  144.7895  163.0596 O.2     1  UNL1       -0.1686
     37 O         140.6317  142.5446  164.8772 O.2     1  UNL1       -0.1686
     38 C         138.8862  143.7265  164.6394 C.3     1  UNL1        0.1340
     39 C         137.8998  142.6133  164.4444 C.3     1  UNL1        0.0257
     40 C         138.5323  144.8990  165.5053 C.3     1  UNL1        0.0257
@<TRIPOS>BOND
     1    24    25    1
     2    25    26    1
     3    25    23    1
     4    23    10    1
     5    10    11   ar
     6    11    12   ar
     7    12    16    1
     8    16    17    1
     9    17    18    1
    10    18    19    1
    11    19    20    1
    12    20    21    1
    13    12    13   ar
    14    13    14   ar
    15    14    15   ar
    16    15     8    1
    17     8     1    1
    18     1     2   ar
    19     2     3   ar
    20     3     4   ar
    21     4     5    1
    22     4     6   ar
    23     6    27    1
    24    27    29    1
    25    29    30   ar
    26    30    31   ar
    27    31    32   ar
    28    32    33   ar
    29    33    34   ar
    30    34    35    1
    31    35    36    2
    32    35    37    2
    33    35    38    1
    34    38    39    1
    35    38    40    1
    36     6     7   ar
    37    15    10   ar
    38     7     1   ar
    39    21    16    1
    40    34    29   ar
    41    19    22    1
    42     8     9    1
    43    27    28    1
@<TRIPOS>MOLECULE
*****
 40 43 0 0 0
SMALL
GASTEIGER

@<TRIPOS>ATOM
      1 C         138.3504  139.8891  162.6220 C.ar    1  UNL1        0.2220
      2 N         137.6614  140.0136  161.2954 N.ar    1  UNL1       -0.2110
      3 C         138.3525  139.5553  160.0454 C.ar    1  UNL1        0.1160
      4 C         139.7326  138.9725  160.1221 C.ar    1  UNL1        0.1085
      5 CL        140.4237  138.5142  158.8722 Cl      1  UNL1       -0.0777
      6 C         140.4215  138.8480  161.4487 C.ar    1  UNL1        0.1472
      7 N         139.7304  139.3063  162.6986 N.ar    1  UNL1       -0.1976
      8 N         137.6593  140.3474  163.8719 N.pl3   1  UNL1       -0.2776
      9 H         136.7100  140.6069  163.8427 H       1  UNL1        0.1552
     10 C         139.3670  141.5400  165.4248 C.ar    1  UNL1        0.2413
     11 N         140.1222  141.6029  166.7193 N.ar    1  UNL1       -0.1957
     12 C         139.9249  140.5363  167.7554 C.ar    1  UNL1        0.1420
     13 N         138.9724  139.4068  167.4970 N.ar    1  UNL1       -0.2277
     14 C         138.2172  139.3438  166.2025 C.ar    1  UNL1        0.1196
     15 C         138.4145  140.4104  165.1665 C.ar    1  UNL1        0.1238
     16 C         140.6801  140.5993  169.0499 C.3     1  UNL1        0.0615
     17 C         141.9288  139.7879  169.2299 C.3     1  UNL1        0.0247
     18 C         142.6841  139.8509  170.5244 C.3     1  UNL1        0.0690
     19 N         142.1906  140.7253  171.6389 N.3     1  UNL1       -0.2974
     20 C         140.9419  141.5367  171.4588 C.3     1  UNL1        0.0690
     21 C         140.1867  141.4737  170.1643 C.3     1  UNL1        0.0247
     22 H         142.9409  141.3827  171.8515 H       1  UNL1        0.1232
     23 O         139.5644  142.6065  164.3888 O.3     1  UNL1       -0.4631
     24 C         138.6299  144.7870  165.4481 C.3     1  UNL1        0.0473
     25 C         138.6334  143.7814  164.3351 C.3     1  UNL1        0.1678
     26 C         137.7059  143.9507  163.1684 C.3     1  UNL1        0.0473
     27 N         141.8015  138.2652  161.5254 N.pl3   1  UNL1       -0.2961
     28 H         142.0084  137.4262  161.0538 H       1  UNL1        0.1537
     29 C         142.8663  138.9608  162.3206 C.ar    1  UNL1        0.0667
     30 C         143.1199  138.5623  163.7443 C.ar    1  UNL1        0.0159
     31 C         144.1847  139.2579  164.5395 C.ar    1  UNL1        0.0014
     32 C         144.9959  140.3521  163.9110 C.ar    1  UNL1        0.0014
     33 C         144.7422  140.7506  162.4874 C.ar    1  UNL1        0.0196
     34 C         143.6774  140.0549  161.6921 C.ar    1  UNL1        0.1189
     35 S         143.4237  140.4534  160.2685 S.O2    1  UNL1        0.0082
     36 O         142.7672  141.7173  160.7392 O.2     1  UNL1       -0.1686
     37 O         144.0802  139.1895  159.7977 O.2     1  UNL1       -0.1686
     38 C         143.1701  140.8519  158.8448 C.3     1  UNL1        0.1340
     39 C         142.0275  141.7659  158.5140 C.3     1  UNL1        0.0257
     40 C         144.0589  140.3366  157.7520 C.3     1  UNL1        0.0257
@<TRIPOS>BOND
     1    24    25    1
     2    25    26    1
     3    25    23    1
     4    23    10    1
     5    10    11   ar
     6    11    12   ar
     7    12    16    1
     8    16    17    1
     9    17    18    1
    10    18    19    1
    11    19    20    1
    12    20    21    1
    13    12    13   ar
    14    13    14   ar
    15    14    15   ar
    16    15     8    1
    17     8     1    1
    18     1     2   ar
    19     2     3   ar
    20     3     4   ar
    21     4     5    1
    22     4     6   ar
    23     6    27    1
    24    27    29    1
    25    29    30   ar
    26    30    31   ar
    27    31    32   ar
    28    32    33   ar
    29    33    34   ar
    30    34    35    1
    31    35    36    2
    32    35    37    2
    33    35    38    1
    34    38    39    1
    35    38    40    1
    36     6     7   ar
    37    15    10   ar
    38     7     1   ar
    39    21    16    1
    40    34    29   ar
    41    19    22    1
    42     8     9    1
    43    27    28    1
@<TRIPOS>MOLECULE
*****
 40 43 0 0 0
SMALL
GASTEIGER

@<TRIPOS>ATOM
      1 C         142.0404  143.3656  162.0780 C.ar    1  UNL1        0.2220
      2 N         142.5657  144.0531  160.8527 N.ar    1  UNL1       -0.2110
      3 C         142.9333  143.2488  159.6410 C.ar    1  UNL1        0.1160
      4 C         142.7754  141.7572  159.6547 C.ar    1  UNL1        0.1085
      5 CL        143.1429  140.9530  158.4430 Cl      1  UNL1       -0.0777
      6 C         142.2500  141.0698  160.8800 C.ar    1  UNL1        0.1472
      7 N         141.8825  141.8740  162.0917 N.ar    1  UNL1       -0.1976
      8 N         141.6728  144.1698  163.2897 N.pl3   1  UNL1       -0.2776
      9 H         141.3685  145.1006  163.1890 H       1  UNL1        0.1552
     10 C         140.5322  143.3718  165.4834 C.ar    1  UNL1        0.2413
     11 N         140.6284  142.7578  166.8485 N.ar    1  UNL1       -0.1957
     12 C         141.9614  142.3275  167.3852 C.ar    1  UNL1        0.1420
     13 N         143.1982  142.5114  166.5567 N.ar    1  UNL1       -0.2277
     14 C         143.1020  143.1255  165.1916 C.ar    1  UNL1        0.1196
     15 C         141.7690  143.5557  164.6549 C.ar    1  UNL1        0.1238
     16 C         142.0575  141.7134  168.7504 C.3     1  UNL1        0.0615
     17 C         141.5918  142.4806  169.9523 C.3     1  UNL1        0.0247
     18 C         141.6880  141.8665  171.3174 C.3     1  UNL1        0.0690
     19 N         142.2498  140.4853  171.4807 N.3     1  UNL1       -0.2974
     20 C         142.7155  139.7182  170.2788 C.3     1  UNL1        0.0690
     21 C         142.6194  140.3323  168.9136 C.3     1  UNL1        0.0247
     22 H         141.5245  139.9231  171.9260 H       1  UNL1        0.1232
     23 O         139.1992  143.8021  164.9468 O.3     1  UNL1       -0.4631
     24 C         138.2280  141.4589  164.3842 C.3     1  UNL1        0.0473
     25 C         138.4359  142.8999  164.0230 C.3     1  UNL1        0.1678
     26 C         137.8806  143.4386  162.7378 C.3     1  UNL1        0.0473
     27 N         142.0922  139.5782  160.8937 N.pl3   1  UNL1       -0.2961
     28 H         142.7588  139.0085  160.4461 H       1  UNL1        0.1537
     29 C         140.9186  138.9545  161.5892 C.ar    1  UNL1        0.0667
     30 C         139.6385  138.7257  160.8415 C.ar    1  UNL1        0.0159
     31 C         138.4649  138.1021  161.5371 C.ar    1  UNL1        0.0014
     32 C         138.5715  137.7072  162.9803 C.ar    1  UNL1        0.0014
     33 C         139.8516  137.9360  163.7279 C.ar    1  UNL1        0.0196
     34 C         141.0252  138.5597  163.0323 C.ar    1  UNL1        0.1189
     35 S         142.3053  138.7885  163.7799 S.O2    1  UNL1        0.0082
     36 O         141.6030  139.7552  164.6866 O.2     1  UNL1       -0.1686
     37 O         143.0076  137.8217  162.8732 O.2     1  UNL1       -0.1686
     38 C         143.5854  139.0173  164.5276 C.3     1  UNL1        0.1340
     39 C         144.7065  139.7756  163.8808 C.3     1  UNL1        0.0257
     40 C         143.7445  138.4878  165.9219 C.3     1  UNL1        0.0257
@<TRIPOS>BOND
     1    24    25    1
     2    25    26    1
     3    25    23    1
     4    23    10    1
     5    10    11   ar
     6    11    12   ar
     7    12    16    1
     8    16    17    1
     9    17    18    1
    10    18    19    1
    11    19    20    1
    12    20    21    1
    13    12    13   ar
    14    13    14   ar
    15    14    15   ar
    16    15     8    1
    17     8     1    1
    18     1     2   ar
    19     2     3   ar
    20     3     4   ar
    21     4     5    1
    22     4     6   ar
    23     6    27    1
    24    27    29    1
    25    29    30   ar
    26    30    31   ar
    27    31    32   ar
    28    32    33   ar
    29    33    34   ar
    30    34    35    1
    31    35    36    2
    32    35    37    2
    33    35    38    1
    34    38    39    1
    35    38    40    1
    36     6     7   ar
    37    15    10   ar
    38     7     1   ar
    39    21    16    1
    40    34    29   ar
    41    19    22    1
    42     8     9    1
    43    27    28    1
@<TRIPOS>MOLECULE
*****
 40 43 0 0 0
SMALL
GASTEIGER

@<TRIPOS>ATOM
      1 C         143.5358  138.9553  160.3778 C.ar    1  UNL1        0.2220
      2 N         143.2988  138.4997  158.9684 N.ar    1  UNL1       -0.2110
      3 C         143.2350  139.5042  157.8562 C.ar    1  UNL1        0.1160
      4 C         143.4082  140.9643  158.1534 C.ar    1  UNL1        0.1085
      5 CL        143.3444  141.9687  157.0412 Cl      1  UNL1       -0.0777
      6 C         143.6451  141.4198  159.5628 C.ar    1  UNL1        0.1472
      7 N         143.7089  140.4153  160.6750 N.ar    1  UNL1       -0.1976
      8 N         143.5995  137.9509  161.4900 N.pl3   1  UNL1       -0.2776
      9 H         143.9526  137.0480  161.3183 H       1  UNL1        0.1552
     10 C         141.7341  137.9675  163.2984 C.ar    1  UNL1        0.2413
     11 N         141.2601  138.3387  164.6722 N.ar    1  UNL1       -0.1957
     12 C         142.1772  139.0643  165.6116 C.ar    1  UNL1        0.1420
     13 N         143.5684  139.4187  165.1771 N.ar    1  UNL1       -0.2277
     14 C         144.0425  139.0476  163.8033 C.ar    1  UNL1        0.1196
     15 C         143.1254  138.3220  162.8639 C.ar    1  UNL1        0.1238
     16 C         141.7030  139.4354  166.9854 C.3     1  UNL1        0.0615
     17 C         142.6317  139.3153  168.1573 C.3     1  UNL1        0.0247
     18 C         142.1576  139.6864  169.5311 C.3     1  UNL1        0.0690
     19 N         140.7548  140.1777  169.7332 N.3     1  UNL1       -0.2974
     20 C         139.8261  140.2978  168.5614 C.3     1  UNL1        0.0690
     21 C         140.3003  139.9267  167.1875 C.3     1  UNL1        0.0247
     22 H         140.8251  141.1061  170.1496 H       1  UNL1        0.1232
     23 O         140.8170  137.2419  162.3590 O.3     1  UNL1       -0.4631
     24 C         139.9115  138.5694  160.3175 C.3     1  UNL1        0.0473
     25 C         139.7012  137.9800  161.6808 C.3     1  UNL1        0.1678
     26 C         138.3749  138.1286  162.3657 C.3     1  UNL1        0.0473
     27 N         143.8183  142.8799  159.8600 N.pl3   1  UNL1       -0.2961
     28 H         144.6966  143.3068  159.7353 H       1  UNL1        0.1537
     29 C         142.6533  143.6894  160.3471 C.ar    1  UNL1        0.0667
     30 C         141.6547  144.2312  159.3677 C.ar    1  UNL1        0.0159
     31 C         140.4896  145.0408  159.8548 C.ar    1  UNL1        0.0014
     32 C         140.3232  145.3086  161.3213 C.ar    1  UNL1        0.0014
     33 C         141.3219  144.7668  162.3007 C.ar    1  UNL1        0.0196
     34 C         142.4869  143.9572  161.8135 C.ar    1  UNL1        0.1189
     35 S         143.4856  143.4154  162.7929 S.O2    1  UNL1        0.0082
     36 O         142.4778  142.4091  163.2638 O.2     1  UNL1       -0.1686
     37 O         144.4933  144.4218  162.3220 O.2     1  UNL1       -0.1686
     38 C         144.4842  142.8736  163.7723 C.3     1  UNL1        0.1340
     39 C         145.6274  142.0311  163.2892 C.3     1  UNL1        0.0257
     40 C         144.3397  143.1744  165.2347 C.3     1  UNL1        0.0257
@<TRIPOS>BOND
     1    24    25    1
     2    25    26    1
     3    25    23    1
     4    23    10    1
     5    10    11   ar
     6    11    12   ar
     7    12    16    1
     8    16    17    1
     9    17    18    1
    10    18    19    1
    11    19    20    1
    12    20    21    1
    13    12    13   ar
    14    13    14   ar
    15    14    15   ar
    16    15     8    1
    17     8     1    1
    18     1     2   ar
    19     2     3   ar
    20     3     4   ar
    21     4     5    1
    22     4     6   ar
    23     6    27    1
    24    27    29    1
    25    29    30   ar
    26    30    31   ar
    27    31    32   ar
    28    32    33   ar
    29    33    34   ar
    30    34    35    1
    31    35    36    2
    32    35    37    2
    33    35    38    1
    34    38    39    1
    35    38    40    1
    36     6     7   ar
    37    15    10   ar
    38     7     1   ar
    39    21    16    1
    40    34    29   ar
    41    19    22    1
    42     8     9    1
    43    27    28    1
@<TRIPOS>MOLECULE
*****
 40 43 0 0 0
SMALL
GASTEIGER

@<TRIPOS>ATOM
      1 C         140.8103  139.3060  162.2667 C.ar    1  UNL1        0.2220
      2 N         141.1614  138.2350  161.2768 N.ar    1  UNL1       -0.2110
      3 C         142.0180  138.5624  160.0898 C.ar    1  UNL1        0.1160
      4 C         142.5235  139.9608  159.8926 C.ar    1  UNL1        0.1085
      5 CL        143.3802  140.2882  158.7056 Cl      1  UNL1       -0.0777
      6 C         142.1725  141.0318  160.8825 C.ar    1  UNL1        0.1472
      7 N         141.3159  140.7044  162.0695 N.ar    1  UNL1       -0.1976
      8 N         139.9537  138.9786  163.4537 N.pl3   1  UNL1       -0.2776
      9 H         139.1614  138.4043  163.3456 H       1  UNL1        0.1552
     10 C         139.4354  140.5717  165.4395 C.ar    1  UNL1        0.2413
     11 N         139.7860  141.1192  166.7913 N.ar    1  UNL1       -0.1957
     12 C         141.0054  140.6214  167.5089 C.ar    1  UNL1        0.1420
     13 N         141.8743  139.5759  166.8749 N.ar    1  UNL1       -0.2277
     14 C         141.5237  139.0284  165.5232 C.ar    1  UNL1        0.1196
     15 C         140.3043  139.5262  164.8055 C.ar    1  UNL1        0.1238
     16 C         141.3560  141.1690  168.8607 C.3     1  UNL1        0.0615
     17 C         140.7149  140.5977  170.0906 C.3     1  UNL1        0.0247
     18 C         141.0655  141.1453  171.4424 C.3     1  UNL1        0.0690
     19 N         142.0571  142.2642  171.5643 N.3     1  UNL1       -0.2974
     20 C         142.6981  142.8355  170.3344 C.3     1  UNL1        0.0690
     21 C         142.3476  142.2879  168.9826 C.3     1  UNL1        0.0247
     22 H         142.8126  141.9246  172.1594 H       1  UNL1        0.1232
     23 O         138.2159  141.0695  164.7219 O.3     1  UNL1       -0.4631
     24 C         138.4575  143.6561  164.6861 C.3     1  UNL1        0.0473
     25 C         138.2698  142.3587  163.9570 C.3     1  UNL1        0.1678
     26 C         138.1360  142.3506  162.4630 C.3     1  UNL1        0.0473
     27 N         142.6780  142.4302  160.6853 N.pl3   1  UNL1       -0.2961
     28 H         143.5336  142.5838  160.2231 H       1  UNL1        0.1537
     29 C         141.8800  143.5947  161.1923 C.ar    1  UNL1        0.0667
     30 C         140.7583  144.1516  160.3666 C.ar    1  UNL1        0.0159
     31 C         139.9603  145.3161  160.8737 C.ar    1  UNL1        0.0014
     32 C         140.2839  145.9237  162.2064 C.ar    1  UNL1        0.0014
     33 C         141.4056  145.3668  163.0321 C.ar    1  UNL1        0.0196
     34 C         142.2036  144.2022  162.5250 C.ar    1  UNL1        0.1189
     35 S         143.3253  143.6453  163.3507 S.O2    1  UNL1        0.0082
     36 O         142.3294  143.0074  164.2733 O.2     1  UNL1       -0.1686
     37 O         144.3212  144.2832  162.4280 O.2     1  UNL1       -0.1686
     38 C         144.4469  143.0884  164.1763 C.3     1  UNL1        0.1340
     39 C         144.6631  143.5801  165.5769 C.3     1  UNL1        0.0257
     40 C         145.3524  142.0398  163.6015 C.3     1  UNL1        0.0257
@<TRIPOS>BOND
     1    24    25    1
     2    25    26    1
     3    25    23    1
     4    23    10    1
     5    10    11   ar
     6    11    12   ar
     7    12    16    1
     8    16    17    1
     9    17    18    1
    10    18    19    1
    11    19    20    1
    12    20    21    1
    13    12    13   ar
    14    13    14   ar
    15    14    15   ar
    16    15     8    1
    17     8     1    1
    18     1     2   ar
    19     2     3   ar
    20     3     4   ar
    21     4     5    1
    22     4     6   ar
    23     6    27    1
    24    27    29    1
    25    29    30   ar
    26    30    31   ar
    27    31    32   ar
    28    32    33   ar
    29    33    34   ar
    30    34    35    1
    31    35    36    2
    32    35    37    2
    33    35    38    1
    34    38    39    1
    35    38    40    1
    36     6     7   ar
    37    15    10   ar
    38     7     1   ar
    39    21    16    1
    40    34    29   ar
    41    19    22    1
    42     8     9    1
    43    27    28    1
