@<TRIPOS>MOLECULE
*****
 26 29 0 0 0
SMALL
GASTEIGER

@<TRIPOS>ATOM
      1 C         137.4035  137.7927  166.9542 C.3     1  UNL1        0.1538
      2 N         138.2890  139.0033  166.9649 N.ar    1  UNL1       -0.2474
      3 C         138.4866  139.9613  165.8278 C.ar    1  UNL1        0.0966
      4 C         139.4522  141.0186  166.2747 C.ar    1  UNL1        0.0382
      5 C         139.8515  140.7140  167.6881 C.ar    1  UNL1        0.1023
      6 N         139.1327  139.4685  168.1147 N.ar    1  UNL1       -0.1692
      7 C         140.8027  141.5143  168.5276 C.ar    1  UNL1        0.0195
      8 C         142.2198  141.0538  168.7010 C.ar    1  UNL1        0.0039
      9 C         143.1709  141.8542  169.5405 C.ar    1  UNL1        0.0297
     10 C         142.7051  143.1149  170.2066 C.ar    1  UNL1        0.1401
     11 F         143.6563  143.9153  171.0460 F       1  UNL1       -0.2042
     12 C         141.2881  143.5753  170.0331 C.ar    1  UNL1        0.0297
     13 C         140.3370  142.7750  169.1936 C.ar    1  UNL1        0.0039
     14 C         139.9340  142.1770  165.4525 C.ar    1  UNL1        0.0058
     15 C         139.2881  143.5226  165.6016 C.ar    1  UNL1        0.0208
     16 C         139.7698  144.6810  164.7795 C.ar    1  UNL1        0.0985
     17 N         140.8975  144.4938  163.8082 N.ar    1  UNL1       -0.2467
     18 C         141.5434  143.1483  163.6592 C.ar    1  UNL1        0.0757
     19 C         141.0617  141.9899  164.4813 C.ar    1  UNL1        0.0163
     20 C         142.6711  142.9611  162.6879 C.3     1  UNL1        0.1248
     21 C         142.5823  143.5529  161.3125 C.3     1  UNL1        0.1639
     22 O         143.7100  143.3657  160.3412 O.3     1  UNL1       -0.3505
     23 C         144.9265  142.5869  160.7455 C.3     1  UNL1        0.1593
     24 C         145.0153  141.9951  162.1209 C.3     1  UNL1        0.1014
     25 N         143.8876  142.1823  163.0921 N.3     1  UNL1       -0.2897
     26 H         144.2782  142.6498  163.9103 H       1  UNL1        0.1237
@<TRIPOS>BOND
     1     1     2    1
     2     2     3   ar
     3     3     4   ar
     4     4    14    1
     5    14    15   ar
     6    15    16   ar
     7    16    17   ar
     8    17    18   ar
     9    18    20    1
    10    20    21    1
    11    21    22    1
    12    22    23    1
    13    23    24    1
    14    24    25    1
    15    18    19   ar
    16     4     5   ar
    17     5     7    1
    18     7     8   ar
    19     8     9   ar
    20     9    10   ar
    21    10    11    1
    22    10    12   ar
    23    12    13   ar
    24     5     6   ar
    25     6     2   ar
    26    19    14   ar
    27    13     7   ar
    28    25    20    1
    29    25    26    1
@<TRIPOS>MOLECULE
*****
 26 29 0 0 0
SMALL
GASTEIGER

@<TRIPOS>ATOM
      1 C         136.9881  137.8547  167.3945 C.3     1  UNL1        0.1538
      2 N         138.1510  138.7971  167.2983 N.ar    1  UNL1       -0.2474
      3 C         138.8611  139.1956  166.0386 C.ar    1  UNL1        0.0966
      4 C         139.9571  140.1513  166.4067 C.ar    1  UNL1        0.0382
      5 C         139.9243  140.3436  167.8939 C.ar    1  UNL1        0.1023
      6 N         138.8082  139.5066  168.4450 N.ar    1  UNL1       -0.1692
      7 C         140.8459  141.2190  168.6903 C.ar    1  UNL1        0.0195
      8 C         142.2284  140.7433  169.0260 C.ar    1  UNL1        0.0039
      9 C         143.1500  141.6187  169.8224 C.ar    1  UNL1        0.0297
     10 C         142.6893  142.9698  170.2831 C.ar    1  UNL1        0.1401
     11 F         143.6109  143.8453  171.0795 F       1  UNL1       -0.2042
     12 C         141.3069  143.4455  169.9474 C.ar    1  UNL1        0.0297
     13 C         140.3853  142.5701  169.1510 C.ar    1  UNL1        0.0039
     14 C         140.9172  140.8008  165.4546 C.ar    1  UNL1        0.0058
     15 C         142.3378  140.3249  165.3809 C.ar    1  UNL1        0.0208
     16 C         143.2978  140.9744  164.4289 C.ar    1  UNL1        0.0985
     17 N         142.8373  142.0998  163.5505 N.ar    1  UNL1       -0.2467
     18 C         141.4167  142.5756  163.6242 C.ar    1  UNL1        0.0757
     19 C         140.4567  141.9261  164.5762 C.ar    1  UNL1        0.0163
     20 C         140.9562  143.7010  162.7458 C.3     1  UNL1        0.1248
     21 C         139.8408  144.5966  163.1972 C.3     1  UNL1        0.1639
     22 O         139.3803  145.7219  162.3188 O.3     1  UNL1       -0.3505
     23 C         140.0351  145.9516  160.9891 C.3     1  UNL1        0.1593
     24 C         141.1505  145.0560  160.5376 C.3     1  UNL1        0.1014
     25 N         141.6110  143.9307  161.4160 N.3     1  UNL1       -0.2897
     26 H         142.6023  144.0867  161.5990 H       1  UNL1        0.1237
@<TRIPOS>BOND
     1     1     2    1
     2     2     3   ar
     3     3     4   ar
     4     4    14    1
     5    14    15   ar
     6    15    16   ar
     7    16    17   ar
     8    17    18   ar
     9    18    20    1
    10    20    21    1
    11    21    22    1
    12    22    23    1
    13    23    24    1
    14    24    25    1
    15    18    19   ar
    16     4     5   ar
    17     5     7    1
    18     7     8   ar
    19     8     9   ar
    20     9    10   ar
    21    10    11    1
    22    10    12   ar
    23    12    13   ar
    24     5     6   ar
    25     6     2   ar
    26    19    14   ar
    27    13     7   ar
    28    25    20    1
    29    25    26    1
@<TRIPOS>MOLECULE
*****
 26 29 0 0 0
SMALL
GASTEIGER

@<TRIPOS>ATOM
      1 C         140.3708  139.9309  170.7125 C.3     1  UNL1        0.1538
      2 N         140.6473  140.2150  169.2659 N.ar    1  UNL1       -0.2474
      3 C         139.6252  140.2861  168.1703 C.ar    1  UNL1        0.0966
      4 C         140.3406  140.5929  166.8881 C.ar    1  UNL1        0.0382
      5 C         141.8049  140.7114  167.1912 C.ar    1  UNL1        0.1023
      6 N         141.9944  140.4778  168.6607 N.ar    1  UNL1       -0.1692
      7 C         142.8892  141.0109  166.1990 C.ar    1  UNL1        0.0195
      8 C         143.3830  142.4171  166.0293 C.ar    1  UNL1        0.0039
      9 C         144.4673  142.7166  165.0371 C.ar    1  UNL1        0.0297
     10 C         145.0580  141.6099  164.2145 C.ar    1  UNL1        0.1401
     11 F         146.1423  141.9094  163.2223 F       1  UNL1       -0.2042
     12 C         144.5641  140.2038  164.3843 C.ar    1  UNL1        0.0297
     13 C         143.4798  139.9043  165.3765 C.ar    1  UNL1        0.0039
     14 C         139.7035  140.7531  165.5395 C.ar    1  UNL1        0.0058
     15 C         138.8201  139.6706  164.9940 C.ar    1  UNL1        0.0208
     16 C         138.1831  139.8309  163.6455 C.ar    1  UNL1        0.0985
     17 N         138.4295  141.0736  162.8426 N.ar    1  UNL1       -0.2467
     18 C         139.3129  142.1562  163.3880 C.ar    1  UNL1        0.0757
     19 C         139.9499  141.9959  164.7365 C.ar    1  UNL1        0.0163
     20 C         139.5593  143.3989  162.5851 C.3     1  UNL1        0.1248
     21 C         138.6462  144.5799  162.7316 C.3     1  UNL1        0.1639
     22 O         138.8926  145.8226  161.9286 O.3     1  UNL1       -0.3505
     23 C         140.0522  145.8845  160.9791 C.3     1  UNL1        0.1593
     24 C         140.9653  144.7035  160.8326 C.3     1  UNL1        0.1014
     25 N         140.7189  143.4608  161.6356 N.3     1  UNL1       -0.2897
     26 H         141.5605  143.2951  162.1875 H       1  UNL1        0.1237
@<TRIPOS>BOND
     1     1     2    1
     2     2     3   ar
     3     3     4   ar
     4     4    14    1
     5    14    15   ar
     6    15    16   ar
     7    16    17   ar
     8    17    18   ar
     9    18    20    1
    10    20    21    1
    11    21    22    1
    12    22    23    1
    13    23    24    1
    14    24    25    1
    15    18    19   ar
    16     4     5   ar
    17     5     7    1
    18     7     8   ar
    19     8     9   ar
    20     9    10   ar
    21    10    11    1
    22    10    12   ar
    23    12    13   ar
    24     5     6   ar
    25     6     2   ar
    26    19    14   ar
    27    13     7   ar
    28    25    20    1
    29    25    26    1
@<TRIPOS>MOLECULE
*****
 26 29 0 0 0
SMALL
GASTEIGER

@<TRIPOS>ATOM
      1 C         141.5112  141.9315  171.2026 C.3     1  UNL1        0.1538
      2 N         141.5498  142.0312  169.7064 N.ar    1  UNL1       -0.2474
      3 C         140.3809  142.3190  168.8115 C.ar    1  UNL1        0.0966
      4 C         140.8727  142.3264  167.3945 C.ar    1  UNL1        0.0382
      5 C         142.3456  142.0432  167.4136 C.ar    1  UNL1        0.1023
      6 N         142.7641  141.8608  168.8424 N.ar    1  UNL1       -0.1692
      7 C         143.2426  141.9575  166.2144 C.ar    1  UNL1        0.0195
      8 C         143.9679  143.1786  165.7315 C.ar    1  UNL1        0.0039
      9 C         144.8649  143.0929  164.5324 C.ar    1  UNL1        0.0297
     10 C         145.0367  141.7862  163.8160 C.ar    1  UNL1        0.1401
     11 F         145.9337  141.7005  162.6168 F       1  UNL1       -0.2042
     12 C         144.3114  140.5652  164.2989 C.ar    1  UNL1        0.0297
     13 C         143.4144  140.6509  165.4980 C.ar    1  UNL1        0.0039
     14 C         140.0381  142.5735  166.1728 C.ar    1  UNL1        0.0058
     15 C         139.5822  143.9644  165.8447 C.ar    1  UNL1        0.0208
     16 C         138.7477  144.2115  164.6231 C.ar    1  UNL1        0.0985
     17 N         138.3691  143.0677  163.7295 N.ar    1  UNL1       -0.2467
     18 C         138.8250  141.6769  164.0575 C.ar    1  UNL1        0.0757
     19 C         139.6595  141.4298  165.2792 C.ar    1  UNL1        0.0163
     20 C         138.4464  140.5332  163.1639 C.3     1  UNL1        0.1248
     21 C         137.6962  140.7923  161.8911 C.3     1  UNL1        0.1639
     22 O         137.3176  139.6486  160.9975 O.3     1  UNL1       -0.3505
     23 C         137.6891  138.2457  161.3767 C.3     1  UNL1        0.1593
     24 C         138.4393  137.9866  162.6495 C.3     1  UNL1        0.1014
     25 N         138.8180  139.1303  163.5431 N.3     1  UNL1       -0.2897
     26 H         139.8337  139.1091  163.6341 H       1  UNL1        0.1237
@<TRIPOS>BOND
     1     1     2    1
     2     2     3   ar
     3     3     4   ar
     4     4    14    1
     5    14    15   ar
     6    15    16   ar
     7    16    17   ar
     8    17    18   ar
     9    18    20    1
    10    20    21    1
    11    21    22    1
    12    22    23    1
    13    23    24    1
    14    24    25    1
    15    18    19   ar
    16     4     5   ar
    17     5     7    1
    18     7     8   ar
    19     8     9   ar
    20     9    10   ar
    21    10    11    1
    22    10    12   ar
    23    12    13   ar
    24     5     6   ar
    25     6     2   ar
    26    19    14   ar
    27    13     7   ar
    28    25    20    1
    29    25    26    1
@<TRIPOS>MOLECULE
*****
 26 29 0 0 0
SMALL
GASTEIGER

@<TRIPOS>ATOM
      1 C         143.7346  137.9280  161.7552 C.3     1  UNL1        0.1538
      2 N         142.6303  138.6362  162.4824 N.ar    1  UNL1       -0.2474
      3 C         142.0194  138.2131  163.7854 C.ar    1  UNL1        0.0966
      4 C         140.9544  139.2073  164.1425 C.ar    1  UNL1        0.0382
      5 C         140.9071  140.2447  163.0602 C.ar    1  UNL1        0.1023
      6 N         141.9427  139.8918  162.0342 N.ar    1  UNL1       -0.1692
      7 C         139.9858  141.4275  163.0124 C.ar    1  UNL1        0.0195
      8 C         140.2397  142.6122  163.8968 C.ar    1  UNL1        0.0039
      9 C         139.3184  143.7949  163.8489 C.ar    1  UNL1        0.0297
     10 C         138.1432  143.7931  162.9167 C.ar    1  UNL1        0.1401
     11 F         137.2219  144.9758  162.8688 F       1  UNL1       -0.2042
     12 C         137.8894  142.6084  162.0323 C.ar    1  UNL1        0.0297
     13 C         138.8107  141.4257  162.0802 C.ar    1  UNL1        0.0039
     14 C         140.0888  139.1703  165.3671 C.ar    1  UNL1        0.0058
     15 C         138.8359  138.3456  165.3753 C.ar    1  UNL1        0.0208
     16 C         137.9704  138.3088  166.5998 C.ar    1  UNL1        0.0985
     17 N         138.3577  139.0966  167.8160 N.ar    1  UNL1       -0.2467
     18 C         139.6106  139.9213  167.8078 C.ar    1  UNL1        0.0757
     19 C         140.4761  139.9582  166.5833 C.ar    1  UNL1        0.0163
     20 C         139.9979  140.7091  169.0241 C.3     1  UNL1        0.1248
     21 C         140.0950  140.0301  170.3580 C.3     1  UNL1        0.1639
     22 O         140.4823  140.8179  171.5742 O.3     1  UNL1       -0.3505
     23 C         140.7725  142.2848  171.4566 C.3     1  UNL1        0.1593
     24 C         140.6754  142.9639  170.1227 C.3     1  UNL1        0.1014
     25 N         140.2880  142.1761  168.9064 N.3     1  UNL1       -0.2897
     26 H         141.0521  142.2724  168.2376 H       1  UNL1        0.1237
@<TRIPOS>BOND
     1     1     2    1
     2     2     3   ar
     3     3     4   ar
     4     4    14    1
     5    14    15   ar
     6    15    16   ar
     7    16    17   ar
     8    17    18   ar
     9    18    20    1
    10    20    21    1
    11    21    22    1
    12    22    23    1
    13    23    24    1
    14    24    25    1
    15    18    19   ar
    16     4     5   ar
    17     5     7    1
    18     7     8   ar
    19     8     9   ar
    20     9    10   ar
    21    10    11    1
    22    10    12   ar
    23    12    13   ar
    24     5     6   ar
    25     6     2   ar
    26    19    14   ar
    27    13     7   ar
    28    25    20    1
    29    25    26    1
@<TRIPOS>MOLECULE
*****
 26 29 0 0 0
SMALL
GASTEIGER

@<TRIPOS>ATOM
      1 C         140.3585  141.9260  170.9575 C.3     1  UNL1        0.1538
      2 N         140.5409  141.7440  169.4798 N.ar    1  UNL1       -0.2474
      3 C         141.4979  142.5032  168.6094 C.ar    1  UNL1        0.0966
      4 C         141.3467  141.9993  167.2047 C.ar    1  UNL1        0.0382
      5 C         140.2963  140.9285  167.2069 C.ar    1  UNL1        0.1023
      6 N         139.7982  140.7707  168.6129 N.ar    1  UNL1       -0.1692
      7 C         139.8264  140.1519  166.0127 C.ar    1  UNL1        0.0195
      8 C         138.6574  140.6431  165.2113 C.ar    1  UNL1        0.0039
      9 C         138.1875  139.8664  164.0171 C.ar    1  UNL1        0.0297
     10 C         138.8865  138.5986  163.6244 C.ar    1  UNL1        0.1401
     11 F         138.4166  137.8220  162.4302 F       1  UNL1       -0.2042
     12 C         140.0554  138.1075  164.4259 C.ar    1  UNL1        0.0297
     13 C         140.5253  138.8841  165.6200 C.ar    1  UNL1        0.0039
     14 C         142.1118  142.4814  166.0078 C.ar    1  UNL1        0.0058
     15 C         143.5944  142.2681  165.9296 C.ar    1  UNL1        0.0208
     16 C         144.3594  142.7502  164.7328 C.ar    1  UNL1        0.0985
     17 N         143.6417  143.4458  163.6143 N.ar    1  UNL1       -0.2467
     18 C         142.1590  143.6592  163.6925 C.ar    1  UNL1        0.0757
     19 C         141.3941  143.1770  164.8893 C.ar    1  UNL1        0.0163
     20 C         141.4413  144.3547  162.5740 C.3     1  UNL1        0.1248
     21 C         140.1141  145.0067  162.8253 C.3     1  UNL1        0.1639
     22 O         139.3964  145.7023  161.7068 O.3     1  UNL1       -0.3505
     23 C         140.0059  145.7458  160.3369 C.3     1  UNL1        0.1593
     24 C         141.3332  145.0938  160.0856 C.3     1  UNL1        0.1014
     25 N         142.0509  144.3982  161.2042 N.3     1  UNL1       -0.2897
     26 H         142.9584  144.8539  161.3001 H       1  UNL1        0.1237
@<TRIPOS>BOND
     1     1     2    1
     2     2     3   ar
     3     3     4   ar
     4     4    14    1
     5    14    15   ar
     6    15    16   ar
     7    16    17   ar
     8    17    18   ar
     9    18    20    1
    10    20    21    1
    11    21    22    1
    12    22    23    1
    13    23    24    1
    14    24    25    1
    15    18    19   ar
    16     4     5   ar
    17     5     7    1
    18     7     8   ar
    19     8     9   ar
    20     9    10   ar
    21    10    11    1
    22    10    12   ar
    23    12    13   ar
    24     5     6   ar
    25     6     2   ar
    26    19    14   ar
    27    13     7   ar
    28    25    20    1
    29    25    26    1
@<TRIPOS>MOLECULE
*****
 26 29 0 0 0
SMALL
GASTEIGER

@<TRIPOS>ATOM
      1 C         141.6994  141.3052  171.0680 C.3     1  UNL1        0.1538
      2 N         141.6152  141.6085  169.6014 N.ar    1  UNL1       -0.2474
      3 C         142.7265  141.4593  168.6050 C.ar    1  UNL1        0.0966
      4 C         142.2030  141.8729  167.2615 C.ar    1  UNL1        0.0382
      5 C         140.7683  142.2778  167.4276 C.ar    1  UNL1        0.1023
      6 N         140.4050  142.1144  168.8737 N.ar    1  UNL1       -0.1692
      7 C         139.8568  142.7612  166.3388 C.ar    1  UNL1        0.0195
      8 C         139.2111  141.7768  165.4092 C.ar    1  UNL1        0.0039
      9 C         138.2996  142.2602  164.3203 C.ar    1  UNL1        0.0297
     10 C         138.0338  143.7279  164.1610 C.ar    1  UNL1        0.1401
     11 F         137.1224  144.2113  163.0722 F       1  UNL1       -0.2042
     12 C         138.6796  144.7122  165.0906 C.ar    1  UNL1        0.0297
     13 C         139.5911  144.2288  166.1795 C.ar    1  UNL1        0.0039
     14 C         142.9783  141.8804  165.9773 C.ar    1  UNL1        0.0058
     15 C         143.9960  142.9522  165.7219 C.ar    1  UNL1        0.0208
     16 C         144.7712  142.9596  164.4377 C.ar    1  UNL1        0.0985
     17 N         144.5286  141.8952  163.4091 N.ar    1  UNL1       -0.2467
     18 C         143.5109  140.8233  163.6646 C.ar    1  UNL1        0.0757
     19 C         142.7357  140.8159  164.9487 C.ar    1  UNL1        0.0163
     20 C         143.2684  139.7589  162.6359 C.3     1  UNL1        0.1248
     21 C         141.9156  139.6224  162.0024 C.3     1  UNL1        0.1639
     22 O         141.6731  138.5580  160.9738 O.3     1  UNL1       -0.3505
     23 C         142.7833  137.6300  160.5786 C.3     1  UNL1        0.1593
     24 C         144.1361  137.7665  161.2121 C.3     1  UNL1        0.1014
     25 N         144.3786  138.8309  162.2407 N.3     1  UNL1       -0.2897
     26 H         145.1379  139.4136  161.8881 H       1  UNL1        0.1237
@<TRIPOS>BOND
     1     1     2    1
     2     2     3   ar
     3     3     4   ar
     4     4    14    1
     5    14    15   ar
     6    15    16   ar
     7    16    17   ar
     8    17    18   ar
     9    18    20    1
    10    20    21    1
    11    21    22    1
    12    22    23    1
    13    23    24    1
    14    24    25    1
    15    18    19   ar
    16     4     5   ar
    17     5     7    1
    18     7     8   ar
    19     8     9   ar
    20     9    10   ar
    21    10    11    1
    22    10    12   ar
    23    12    13   ar
    24     5     6   ar
    25     6     2   ar
    26    19    14   ar
    27    13     7   ar
    28    25    20    1
    29    25    26    1
@<TRIPOS>MOLECULE
*****
 26 29 0 0 0
SMALL
GASTEIGER

@<TRIPOS>ATOM
      1 C         140.7662  141.8718  171.1308 C.3     1  UNL1        0.1538
      2 N         140.6014  141.7825  169.6425 N.ar    1  UNL1       -0.2474
      3 C         140.3806  140.5260  168.8537 C.ar    1  UNL1        0.0966
      4 C         140.2712  140.9011  167.4054 C.ar    1  UNL1        0.0382
      5 C         140.4244  142.3894  167.2992 C.ar    1  UNL1        0.1023
      6 N         140.6285  142.9342  168.6818 N.ar    1  UNL1       -0.1692
      7 C         140.3811  143.1921  166.0328 C.ar    1  UNL1        0.0195
      8 C         139.1349  143.9396  165.6609 C.ar    1  UNL1        0.0039
      9 C         139.0916  144.7423  164.3945 C.ar    1  UNL1        0.0297
     10 C         140.2945  144.7975  163.5000 C.ar    1  UNL1        0.1401
     11 F         140.2512  145.6002  162.2335 F       1  UNL1       -0.2042
     12 C         141.5406  144.0500  163.8719 C.ar    1  UNL1        0.0297
     13 C         141.5839  143.2473  165.1383 C.ar    1  UNL1        0.0039
     14 C         140.0478  139.9540  166.2638 C.ar    1  UNL1        0.0058
     15 C         138.7761  139.1626  166.1837 C.ar    1  UNL1        0.0208
     16 C         138.5528  138.2156  165.0421 C.ar    1  UNL1        0.0985
     17 N         139.6012  138.0600  163.9807 N.ar    1  UNL1       -0.2467
     18 C         140.8729  138.8513  164.0608 C.ar    1  UNL1        0.0757
     19 C         141.0962  139.7983  165.2023 C.ar    1  UNL1        0.0163
     20 C         141.9212  138.6957  162.9993 C.3     1  UNL1        0.1248
     21 C         143.2455  139.3846  163.1464 C.3     1  UNL1        0.1639
     22 O         144.2939  139.2289  162.0849 O.3     1  UNL1       -0.3505
     23 C         144.0180  138.3844  160.8764 C.3     1  UNL1        0.1593
     24 C         142.6937  137.6955  160.7293 C.3     1  UNL1        0.1014
     25 N         141.6453  137.8512  161.7908 N.3     1  UNL1       -0.2897
     26 H         141.4281  136.9140  162.1298 H       1  UNL1        0.1237
@<TRIPOS>BOND
     1     1     2    1
     2     2     3   ar
     3     3     4   ar
     4     4    14    1
     5    14    15   ar
     6    15    16   ar
     7    16    17   ar
     8    17    18   ar
     9    18    20    1
    10    20    21    1
    11    21    22    1
    12    22    23    1
    13    23    24    1
    14    24    25    1
    15    18    19   ar
    16     4     5   ar
    17     5     7    1
    18     7     8   ar
    19     8     9   ar
    20     9    10   ar
    21    10    11    1
    22    10    12   ar
    23    12    13   ar
    24     5     6   ar
    25     6     2   ar
    26    19    14   ar
    27    13     7   ar
    28    25    20    1
    29    25    26    1
@<TRIPOS>MOLECULE
*****
 26 29 0 0 0
SMALL
GASTEIGER

@<TRIPOS>ATOM
      1 C         145.4840  141.0507  163.9991 C.3     1  UNL1        0.1538
      2 N         143.9856  140.9856  164.0220 N.ar    1  UNL1       -0.2474
      3 C         143.0539  141.8267  163.2006 C.ar    1  UNL1        0.0966
      4 C         141.6483  141.4289  163.5412 C.ar    1  UNL1        0.0382
      5 C         141.7112  140.3420  164.5731 C.ar    1  UNL1        0.1023
      6 N         143.1557  140.0681  164.8702 N.ar    1  UNL1       -0.1692
      7 C         140.5360  139.6505  165.1981 C.ar    1  UNL1        0.0195
      8 C         139.9373  140.1863  166.4648 C.ar    1  UNL1        0.0039
      9 C         138.7620  139.4948  167.0898 C.ar    1  UNL1        0.0297
     10 C         138.1855  138.2675  166.4482 C.ar    1  UNL1        0.1401
     11 F         137.0103  137.5760  167.0732 F       1  UNL1       -0.2042
     12 C         138.7843  137.7319  165.1815 C.ar    1  UNL1        0.0297
     13 C         139.9595  138.4234  164.5565 C.ar    1  UNL1        0.0039
     14 C         140.3990  142.0152  162.9532 C.ar    1  UNL1        0.0058
     15 C         139.5660  142.9673  163.7590 C.ar    1  UNL1        0.0208
     16 C         138.3168  143.5535  163.1709 C.ar    1  UNL1        0.0985
     17 N         137.9007  143.1875  161.7770 N.ar    1  UNL1       -0.2467
     18 C         138.7337  142.2354  160.9712 C.ar    1  UNL1        0.0757
     19 C         139.9829  141.6492  161.5593 C.ar    1  UNL1        0.0163
     20 C         138.3176  141.8695  159.5773 C.3     1  UNL1        0.1248
     21 C         138.0517  140.4357  159.2260 C.3     1  UNL1        0.1639
     22 O         137.6356  140.0697  157.8322 O.3     1  UNL1       -0.3505
     23 C         137.4854  141.1375  156.7895 C.3     1  UNL1        0.1593
     24 C         137.7513  142.5714  157.1408 C.3     1  UNL1        0.1014
     25 N         138.1674  142.9373  158.5347 N.3     1  UNL1       -0.2897
     26 H         137.4726  143.5962  158.8860 H       1  UNL1        0.1237
@<TRIPOS>BOND
     1     1     2    1
     2     2     3   ar
     3     3     4   ar
     4     4    14    1
     5    14    15   ar
     6    15    16   ar
     7    16    17   ar
     8    17    18   ar
     9    18    20    1
    10    20    21    1
    11    21    22    1
    12    22    23    1
    13    23    24    1
    14    24    25    1
    15    18    19   ar
    16     4     5   ar
    17     5     7    1
    18     7     8   ar
    19     8     9   ar
    20     9    10   ar
    21    10    11    1
    22    10    12   ar
    23    12    13   ar
    24     5     6   ar
    25     6     2   ar
    26    19    14   ar
    27    13     7   ar
    28    25    20    1
    29    25    26    1
