@<TRIPOS>MOLECULE
*****
 29 31 0 0 0
SMALL
GASTEIGER

@<TRIPOS>ATOM
      1 C         142.6428  140.0730  164.5900 C.ar    1  UNL1        0.1517
      2 C         143.7457  139.1115  164.9200 C.ar    1  UNL1        0.0382
      3 C         143.8230  138.4993  166.2872 C.ar    1  UNL1        0.0032
      4 C         142.7974  138.8488  167.3245 C.ar    1  UNL1        0.0014
      5 C         141.6945  139.8103  166.9945 C.ar    1  UNL1        0.0170
      6 C         141.6172  140.4224  165.6273 C.ar    1  UNL1        0.0823
      7 C         140.6688  140.1598  168.0318 C.2     1  UNL1        0.0125
      8 C         140.9787  141.1921  169.0750 C.2     1  UNL1        0.0873
      9 S         142.2637  141.9546  169.2065 S.3     1  UNL1       -0.0254
     10 C         142.1373  142.8770  170.3826 C.2     1  UNL1        0.2832
     11 O         143.1893  143.8252  170.8765 O.2     1  UNL1       -0.2622
     12 N         140.7740  142.6845  170.9781 N.am    1  UNL1       -0.2425
     13 C         140.0580  141.6432  170.1699 C.2     1  UNL1        0.2583
     14 O         138.6658  141.1412  170.4139 O.2     1  UNL1       -0.2692
     15 H         140.4127  143.1584  171.7617 H       1  UNL1        0.1587
     16 N         140.5141  141.3840  165.2973 N.pl3   1  UNL1       -0.3038
     17 C         140.6456  142.8317  165.6673 C.3     1  UNL1        0.0910
     18 C         139.5426  143.7933  165.3373 C.3     1  UNL1        0.0228
     19 C         138.3082  143.3072  164.6375 C.3     1  UNL1        0.0190
     20 C         138.1767  141.8594  164.2675 C.3     1  UNL1        0.0709
     21 N         136.9423  141.3732  163.5677 N.3     1  UNL1       -0.3208
     22 C         139.2797  140.8979  164.5975 C.3     1  UNL1        0.1062
     23 H         136.3029  142.1548  163.4238 H       1  UNL1        0.1189
     24 H         136.4861  140.6613  164.1381 H       1  UNL1        0.1189
     25 O         142.5654  140.6851  163.2228 O.3     1  UNL1       -0.4742
     26 C         143.2557  141.9873  162.9439 C.3     1  UNL1        0.2053
     27 C         145.7949  141.7993  163.4609 C.3     1  UNL1        0.0038
     28 C         144.4493  142.3926  163.7569 C.3     1  UNL1        0.0438
     29 C         144.2974  143.3913  164.8658 C.3     1  UNL1        0.0038
@<TRIPOS>BOND
     1    27    28    1
     2    28    29    1
     3    28    26    1
     4    26    25    1
     5    25     1    1
     6     1     2   ar
     7     2     3   ar
     8     3     4   ar
     9     4     5   ar
    10     5     7    1
    11     7     8    2
    12     8     9    1
    13     9    10    1
    14    10    11    2
    15    10    12   am
    16    12    13   am
    17    13    14    2
    18     5     6   ar
    19     6    16    1
    20    16    17    1
    21    17    18    1
    22    18    19    1
    23    19    20    1
    24    20    21    1
    25    20    22    1
    26     6     1   ar
    27    22    16    1
    28    13     8    1
    29    12    15    1
    30    21    23    1
    31    21    24    1
@<TRIPOS>MOLECULE
*****
 29 31 0 0 0
SMALL
GASTEIGER

@<TRIPOS>ATOM
      1 C         141.9545  139.9887  164.3698 C.ar    1  UNL1        0.1517
      2 C         142.7220  138.7536  164.7375 C.ar    1  UNL1        0.0382
      3 C         143.2189  138.5693  166.1408 C.ar    1  UNL1        0.0032
      4 C         142.9483  139.6202  167.1763 C.ar    1  UNL1        0.0014
      5 C         142.1808  140.8554  166.8086 C.ar    1  UNL1        0.0170
      6 C         141.6839  141.0396  165.4053 C.ar    1  UNL1        0.0823
      7 C         141.9101  141.9063  167.8441 C.2     1  UNL1        0.0125
      8 C         140.8141  141.7051  168.8482 C.2     1  UNL1        0.0873
      9 S         139.9107  140.5112  168.9401 S.3     1  UNL1       -0.0254
     10 C         138.9673  140.7307  170.0854 C.2     1  UNL1        0.2832
     11 O         137.8923  139.7864  170.5356 O.2     1  UNL1       -0.2622
     12 N         139.2875  142.0604  170.7014 N.am    1  UNL1       -0.2425
     13 C         140.4289  142.6626  169.9368 C.2     1  UNL1        0.2583
     14 O         141.0722  143.9893  170.2124 O.2     1  UNL1       -0.2692
     15 H         138.8291  142.4665  171.4722 H       1  UNL1        0.1587
     16 N         140.9163  142.2749  165.0376 N.pl3   1  UNL1       -0.3038
     17 C         139.4463  142.3576  165.3244 C.3     1  UNL1        0.0910
     18 C         138.6788  143.5928  164.9567 C.3     1  UNL1        0.0228
     19 C         139.3813  144.7453  164.3022 C.3     1  UNL1        0.0190
     20 C         140.8513  144.6625  164.0155 C.3     1  UNL1        0.0709
     21 N         141.5538  145.8150  163.3611 N.3     1  UNL1       -0.3208
     22 C         141.6188  143.4273  164.3832 C.3     1  UNL1        0.1062
     23 H         140.8849  146.5640  163.1828 H       1  UNL1        0.1189
     24 H         141.9628  145.5072  162.4788 H       1  UNL1        0.1189
     25 O         141.4576  140.1730  162.9666 O.3     1  UNL1       -0.4742
     26 C         140.3854  139.2738  162.4265 C.3     1  UNL1        0.2053
     27 C         137.9665  140.0074  163.0275 C.3     1  UNL1        0.0038
     28 C         139.1199  139.0646  163.2041 C.3     1  UNL1        0.0438
     29 C         139.0077  137.9127  164.1583 C.3     1  UNL1        0.0038
@<TRIPOS>BOND
     1    27    28    1
     2    28    29    1
     3    28    26    1
     4    26    25    1
     5    25     1    1
     6     1     2   ar
     7     2     3   ar
     8     3     4   ar
     9     4     5   ar
    10     5     7    1
    11     7     8    2
    12     8     9    1
    13     9    10    1
    14    10    11    2
    15    10    12   am
    16    12    13   am
    17    13    14    2
    18     5     6   ar
    19     6    16    1
    20    16    17    1
    21    17    18    1
    22    18    19    1
    23    19    20    1
    24    20    21    1
    25    20    22    1
    26     6     1   ar
    27    22    16    1
    28    13     8    1
    29    12    15    1
    30    21    23    1
    31    21    24    1
@<TRIPOS>MOLECULE
*****
 29 31 0 0 0
SMALL
GASTEIGER

@<TRIPOS>ATOM
      1 C         139.7172  140.6960  164.2640 C.ar    1  UNL1        0.1517
      2 C         138.3724  140.0961  164.5491 C.ar    1  UNL1        0.0382
      3 C         138.0656  139.5579  165.9152 C.ar    1  UNL1        0.0032
      4 C         139.1037  139.6197  166.9962 C.ar    1  UNL1        0.0014
      5 C         140.4485  140.2196  166.7111 C.ar    1  UNL1        0.0170
      6 C         140.7553  140.7578  165.3449 C.ar    1  UNL1        0.0823
      7 C         141.4867  140.2815  167.7921 C.2     1  UNL1        0.0125
      8 C         141.4952  141.4282  168.7590 C.2     1  UNL1        0.0873
      9 S         140.5345  142.5801  168.7692 S.3     1  UNL1       -0.0254
     10 C         140.9115  143.4882  169.9020 C.2     1  UNL1        0.2832
     11 O         140.2167  144.7631  170.2787 O.2     1  UNL1       -0.2622
     12 N         142.1053  142.8975  170.5919 N.am    1  UNL1       -0.2425
     13 C         142.4660  141.6244  169.8855 C.2     1  UNL1        0.2583
     14 O         143.5987  140.7083  170.2429 O.2     1  UNL1       -0.2692
     15 H         142.5704  143.2786  171.3715 H       1  UNL1        0.1587
     16 N         142.1003  141.3577  165.0598 N.pl3   1  UNL1       -0.3038
     17 C         142.4146  142.7490  165.5241 C.3     1  UNL1        0.0910
     18 C         143.7596  143.3489  165.2390 C.3     1  UNL1        0.0228
     19 C         144.7901  142.5576  164.4896 C.3     1  UNL1        0.0190
     20 C         144.4758  141.1662  164.0252 C.3     1  UNL1        0.0709
     21 N         145.5063  140.3749  163.2758 N.3     1  UNL1       -0.3208
     22 C         143.1309  140.5664  164.3104 C.3     1  UNL1        0.1062
     23 H         146.3541  140.9325  163.1722 H       1  UNL1        0.1189
     24 H         145.1443  140.1322  162.3536 H       1  UNL1        0.1189
     25 O         140.0240  141.2341  162.8978 O.3     1  UNL1       -0.4742
     26 C         140.0855  142.7157  162.6718 C.3     1  UNL1        0.2053
     27 C         137.6303  143.4884  163.0254 C.3     1  UNL1        0.0038
     28 C         139.0912  143.6182  163.3401 C.3     1  UNL1        0.0438
     29 C         139.5577  144.6506  164.3232 C.3     1  UNL1        0.0038
@<TRIPOS>BOND
     1    27    28    1
     2    28    29    1
     3    28    26    1
     4    26    25    1
     5    25     1    1
     6     1     2   ar
     7     2     3   ar
     8     3     4   ar
     9     4     5   ar
    10     5     7    1
    11     7     8    2
    12     8     9    1
    13     9    10    1
    14    10    11    2
    15    10    12   am
    16    12    13   am
    17    13    14    2
    18     5     6   ar
    19     6    16    1
    20    16    17    1
    21    17    18    1
    22    18    19    1
    23    19    20    1
    24    20    21    1
    25    20    22    1
    26     6     1   ar
    27    22    16    1
    28    13     8    1
    29    12    15    1
    30    21    23    1
    31    21    24    1
@<TRIPOS>MOLECULE
*****
 29 31 0 0 0
SMALL
GASTEIGER

@<TRIPOS>ATOM
      1 C         139.5566  140.4631  164.4814 C.ar    1  UNL1        0.1517
      2 C         138.2361  139.8391  164.8234 C.ar    1  UNL1        0.0382
      3 C         137.9814  139.3372  166.2138 C.ar    1  UNL1        0.0032
      4 C         139.0472  139.4592  167.2622 C.ar    1  UNL1        0.0014
      5 C         140.3677  140.0831  166.9202 C.ar    1  UNL1        0.0170
      6 C         140.6223  140.5850  165.5298 C.ar    1  UNL1        0.0823
      7 C         141.4335  140.2051  167.9686 C.2     1  UNL1        0.0125
      8 C         141.4606  141.3999  168.8751 C.2     1  UNL1        0.0873
      9 S         140.4936  142.5463  168.8519 S.3     1  UNL1       -0.0254
     10 C         140.8948  143.5130  169.9264 C.2     1  UNL1        0.2832
     11 O         140.2025  144.8022  170.2558 O.2     1  UNL1       -0.2622
     12 N         142.1098  142.9640  170.6136 N.am    1  UNL1       -0.2425
     13 C         142.4595  141.6581  169.9639 C.2     1  UNL1        0.2583
     14 O         143.6068  140.7668  170.3374 O.2     1  UNL1       -0.2692
     15 H         142.5930  143.3867  171.3601 H       1  UNL1        0.1587
     16 N         141.9429  141.2090  165.1878 N.pl3   1  UNL1       -0.3038
     17 C         142.1382  142.6874  165.3494 C.3     1  UNL1        0.0910
     18 C         143.4587  143.3113  165.0074 C.3     1  UNL1        0.0228
     19 C         144.5840  142.4567  164.5039 C.3     1  UNL1        0.0190
     20 C         144.3887  140.9783  164.3424 C.3     1  UNL1        0.0709
     21 N         145.5140  140.1237  163.8389 N.3     1  UNL1       -0.3208
     22 C         143.0682  140.3544  164.6844 C.3     1  UNL1        0.1062
     23 H         146.3301  140.7082  163.6580 H       1  UNL1        0.1189
     24 H         145.2294  139.6606  162.9758 H       1  UNL1        0.1189
     25 O         139.8113  140.9650  163.0910 O.3     1  UNL1       -0.4742
     26 C         140.5012  140.0856  162.0908 C.3     1  UNL1        0.2053
     27 C         138.9233  138.0975  161.5358 C.3     1  UNL1        0.0038
     28 C         140.2263  138.6111  162.0729 C.3     1  UNL1        0.0438
     29 C         141.2544  137.6501  162.5920 C.3     1  UNL1        0.0038
@<TRIPOS>BOND
     1    27    28    1
     2    28    29    1
     3    28    26    1
     4    26    25    1
     5    25     1    1
     6     1     2   ar
     7     2     3   ar
     8     3     4   ar
     9     4     5   ar
    10     5     7    1
    11     7     8    2
    12     8     9    1
    13     9    10    1
    14    10    11    2
    15    10    12   am
    16    12    13   am
    17    13    14    2
    18     5     6   ar
    19     6    16    1
    20    16    17    1
    21    17    18    1
    22    18    19    1
    23    19    20    1
    24    20    21    1
    25    20    22    1
    26     6     1   ar
    27    22    16    1
    28    13     8    1
    29    12    15    1
    30    21    23    1
    31    21    24    1
@<TRIPOS>MOLECULE
*****
 29 31 0 0 0
SMALL
GASTEIGER

@<TRIPOS>ATOM
      1 C         138.4048  139.9473  163.6636 C.ar    1  UNL1        0.1517
      2 C         138.1269  139.1508  162.4233 C.ar    1  UNL1        0.0382
      3 C         139.0084  137.9919  162.0630 C.ar    1  UNL1        0.0032
      4 C         140.1678  137.6295  162.9430 C.ar    1  UNL1        0.0014
      5 C         140.4457  138.4259  164.1833 C.ar    1  UNL1        0.0170
      6 C         139.5642  139.5848  164.5436 C.ar    1  UNL1        0.0823
      7 C         141.6051  138.0635  165.0633 C.2     1  UNL1        0.0125
      8 C         142.9523  138.6763  164.8191 C.2     1  UNL1        0.0873
      9 S         143.2903  139.6612  163.7395 S.3     1  UNL1       -0.0254
     10 C         144.7449  140.0054  163.8648 C.2     1  UNL1        0.2832
     11 O         145.5050  140.9550  162.9872 O.2     1  UNL1       -0.2622
     12 N         145.3059  139.2331  165.0220 N.am    1  UNL1       -0.2425
     13 C         144.1980  138.4117  165.6117 C.2     1  UNL1        0.2583
     14 O         144.3153  137.4879  166.7877 O.2     1  UNL1       -0.2692
     15 H         146.2377  139.2606  165.3387 H       1  UNL1        0.1587
     16 N         139.8421  140.3813  165.7839 N.pl3   1  UNL1       -0.3038
     17 C         140.5328  141.7090  165.6836 C.3     1  UNL1        0.0910
     18 C         140.8108  142.5055  166.9240 C.3     1  UNL1        0.0228
     19 C         140.3979  141.9742  168.2646 C.3     1  UNL1        0.0190
     20 C         139.7071  140.6465  168.3649 C.3     1  UNL1        0.0709
     21 N         139.2943  140.1152  169.7056 N.3     1  UNL1       -0.3208
     22 C         139.4292  139.8501  167.1246 C.3     1  UNL1        0.1062
     23 H         139.5593  140.7810  170.4314 H       1  UNL1        0.1189
     24 H         139.7594  139.2235  169.8759 H       1  UNL1        0.1189
     25 O         137.5233  141.1062  164.0239 O.3     1  UNL1       -0.4742
     26 C         137.4334  142.2926  163.1105 C.3     1  UNL1        0.2053
     27 C         137.8355  144.1360  164.8967 C.3     1  UNL1        0.0038
     28 C         138.0529  143.5980  163.5134 C.3     1  UNL1        0.0438
     29 C         138.8898  144.3652  162.5332 C.3     1  UNL1        0.0038
@<TRIPOS>BOND
     1    27    28    1
     2    28    29    1
     3    28    26    1
     4    26    25    1
     5    25     1    1
     6     1     2   ar
     7     2     3   ar
     8     3     4   ar
     9     4     5   ar
    10     5     7    1
    11     7     8    2
    12     8     9    1
    13     9    10    1
    14    10    11    2
    15    10    12   am
    16    12    13   am
    17    13    14    2
    18     5     6   ar
    19     6    16    1
    20    16    17    1
    21    17    18    1
    22    18    19    1
    23    19    20    1
    24    20    21    1
    25    20    22    1
    26     6     1   ar
    27    22    16    1
    28    13     8    1
    29    12    15    1
    30    21    23    1
    31    21    24    1
@<TRIPOS>MOLECULE
*****
 29 31 0 0 0
SMALL
GASTEIGER

@<TRIPOS>ATOM
      1 C         142.3084  139.8971  164.4176 C.ar    1  UNL1        0.1517
      2 C         142.9426  138.6106  164.8564 C.ar    1  UNL1        0.0382
      3 C         143.2769  138.3943  166.3026 C.ar    1  UNL1        0.0032
      4 C         142.9770  139.4645  167.3099 C.ar    1  UNL1        0.0014
      5 C         142.3428  140.7509  166.8711 C.ar    1  UNL1        0.0170
      6 C         142.0085  140.9672  165.4249 C.ar    1  UNL1        0.0823
      7 C         142.0428  141.8212  167.8784 C.2     1  UNL1        0.0125
      8 C         140.9106  141.6442  168.8462 C.2     1  UNL1        0.0873
      9 S         139.9964  140.4576  168.9261 S.3     1  UNL1       -0.0254
     10 C         139.0145  140.7027  170.0332 C.2     1  UNL1        0.2832
     11 O         137.9178  139.7730  170.4609 O.2     1  UNL1       -0.2622
     12 N         139.3218  142.0407  170.6376 N.am    1  UNL1       -0.2425
     13 C         140.4937  142.6225  169.9040 C.2     1  UNL1        0.2583
     14 O         141.1359  143.9498  170.1798 O.2     1  UNL1       -0.2692
     15 H         138.8392  142.4629  171.3847 H       1  UNL1        0.1587
     16 N         141.3742  142.2538  164.9860 N.pl3   1  UNL1       -0.3038
     17 C         142.2307  143.3826  164.4939 C.3     1  UNL1        0.0910
     18 C         141.5964  144.6692  164.0550 C.3     1  UNL1        0.0228
     19 C         140.1057  144.8269  164.1084 C.3     1  UNL1        0.0190
     20 C         139.2492  143.6980  164.6006 C.3     1  UNL1        0.0709
     21 N         137.7585  143.8557  164.6539 N.3     1  UNL1       -0.3208
     22 C         139.8835  142.4115  165.0394 C.3     1  UNL1        0.1062
     23 H         137.5028  144.7855  164.3214 H       1  UNL1        0.1189
     24 H         137.4383  143.7385  165.6153 H       1  UNL1        0.1189
     25 O         141.9741  140.1134  162.9714 O.3     1  UNL1       -0.4742
     26 C         142.8341  139.5049  161.9036 C.3     1  UNL1        0.2053
     27 C         144.5040  141.4827  161.6808 C.3     1  UNL1        0.0038
     28 C         143.7040  140.3808  161.0516 C.3     1  UNL1        0.0438
     29 C         143.7739  140.1549  159.5704 C.3     1  UNL1        0.0038
@<TRIPOS>BOND
     1    27    28    1
     2    28    29    1
     3    28    26    1
     4    26    25    1
     5    25     1    1
     6     1     2   ar
     7     2     3   ar
     8     3     4   ar
     9     4     5   ar
    10     5     7    1
    11     7     8    2
    12     8     9    1
    13     9    10    1
    14    10    11    2
    15    10    12   am
    16    12    13   am
    17    13    14    2
    18     5     6   ar
    19     6    16    1
    20    16    17    1
    21    17    18    1
    22    18    19    1
    23    19    20    1
    24    20    21    1
    25    20    22    1
    26     6     1   ar
    27    22    16    1
    28    13     8    1
    29    12    15    1
    30    21    23    1
    31    21    24    1
@<TRIPOS>MOLECULE
*****
 29 31 0 0 0
SMALL
GASTEIGER

@<TRIPOS>ATOM
      1 C         140.4419  139.7364  165.9086 C.ar    1  UNL1        0.1517
      2 C         140.6538  140.1064  167.3467 C.ar    1  UNL1        0.0382
      3 C         140.4644  141.5264  167.7915 C.ar    1  UNL1        0.0032
      4 C         140.0631  142.5763  166.7983 C.ar    1  UNL1        0.0014
      5 C         139.8512  142.2063  165.3602 C.ar    1  UNL1        0.0170
      6 C         140.0406  140.7863  164.9154 C.ar    1  UNL1        0.0823
      7 C         139.4499  143.2562  164.3669 C.2     1  UNL1        0.0125
      8 C         140.5006  144.0113  163.6080 C.2     1  UNL1        0.0873
      9 S         141.9838  143.8270  163.7353 S.3     1  UNL1       -0.0254
     10 C         142.6524  144.7850  162.7945 C.2     1  UNL1        0.2832
     11 O         144.1313  144.9395  162.5972 O.2     1  UNL1       -0.2622
     12 N         141.5825  145.5614  162.0857 N.am    1  UNL1       -0.2425
     13 C         140.2526  145.0832  162.5885 C.2     1  UNL1        0.2583
     14 O         138.9104  145.5883  162.1489 O.2     1  UNL1       -0.2692
     15 H         141.7276  146.2619  161.4093 H       1  UNL1        0.1587
     16 N         139.8287  140.4163  163.4772 N.pl3   1  UNL1       -0.3038
     17 C         140.9857  140.4233  162.5227 C.3     1  UNL1        0.0910
     18 C         140.7738  140.0533  161.0845 C.3     1  UNL1        0.0228
     19 C         139.4048  139.6764  160.6009 C.3     1  UNL1        0.0190
     20 C         138.2477  139.6695  161.5556 C.3     1  UNL1        0.0709
     21 N         136.8787  139.2926  161.0720 N.3     1  UNL1       -0.3208
     22 C         138.4597  140.0394  162.9937 C.3     1  UNL1        0.1062
     23 H         136.9182  139.0728  160.0768 H       1  UNL1        0.1189
     24 H         136.2383  140.0720  161.2229 H       1  UNL1        0.1189
     25 O         140.6312  138.3164  165.4638 O.3     1  UNL1       -0.4742
     26 C         141.9396  137.8844  164.8708 C.3     1  UNL1        0.2053
     27 C         143.9170  139.5469  164.5952 C.3     1  UNL1        0.0038
     28 C         143.2232  138.4717  165.3780 C.3     1  UNL1        0.0438
     29 C         143.8132  137.9838  166.6679 C.3     1  UNL1        0.0038
@<TRIPOS>BOND
     1    27    28    1
     2    28    29    1
     3    28    26    1
     4    26    25    1
     5    25     1    1
     6     1     2   ar
     7     2     3   ar
     8     3     4   ar
     9     4     5   ar
    10     5     7    1
    11     7     8    2
    12     8     9    1
    13     9    10    1
    14    10    11    2
    15    10    12   am
    16    12    13   am
    17    13    14    2
    18     5     6   ar
    19     6    16    1
    20    16    17    1
    21    17    18    1
    22    18    19    1
    23    19    20    1
    24    20    21    1
    25    20    22    1
    26     6     1   ar
    27    22    16    1
    28    13     8    1
    29    12    15    1
    30    21    23    1
    31    21    24    1
@<TRIPOS>MOLECULE
*****
 29 31 0 0 0
SMALL
GASTEIGER

@<TRIPOS>ATOM
      1 C         141.1781  142.6137  164.5247 C.ar    1  UNL1        0.1517
      2 C         142.2189  143.6856  164.3928 C.ar    1  UNL1        0.0382
      3 C         143.4643  143.6285  165.2270 C.ar    1  UNL1        0.0032
      4 C         143.6688  142.4994  166.1930 C.ar    1  UNL1        0.0014
      5 C         142.6279  141.4274  166.3248 C.ar    1  UNL1        0.0170
      6 C         141.3826  141.4846  165.4907 C.ar    1  UNL1        0.0823
      7 C         142.8324  140.2982  167.2909 C.2     1  UNL1        0.0125
      8 C         142.4876  140.4788  168.7395 C.2     1  UNL1        0.0873
      9 S         141.9329  141.7241  169.3652 S.3     1  UNL1       -0.0254
     10 C         141.7394  141.4608  170.8292 C.2     1  UNL1        0.2832
     11 O         141.2046  142.4346  171.8370 O.2     1  UNL1       -0.2622
     12 N         142.1745  140.0527  171.1083 N.am    1  UNL1       -0.2425
     13 C         142.6369  139.4458  169.8168 C.2     1  UNL1        0.2583
     14 O         143.1573  138.0508  169.6347 O.2     1  UNL1       -0.2692
     15 H         142.1593  139.6054  171.9852 H       1  UNL1        0.1587
     16 N         140.3417  140.4125  165.6226 N.pl3   1  UNL1       -0.3038
     17 C         139.4802  140.3504  166.8489 C.3     1  UNL1        0.0910
     18 C         138.4393  139.2783  166.9808 C.3     1  UNL1        0.0228
     19 C         138.2600  138.2684  165.8863 C.3     1  UNL1        0.0190
     20 C         139.1215  138.3306  164.6599 C.3     1  UNL1        0.0709
     21 N         138.9421  137.3207  163.5654 N.3     1  UNL1       -0.3208
     22 C         140.1623  139.4026  164.5280 C.3     1  UNL1        0.1062
     23 H         138.1973  136.6720  163.8200 H       1  UNL1        0.1189
     24 H         139.8119  136.8047  163.4330 H       1  UNL1        0.1189
     25 O         139.9327  142.6708  163.6905 O.3     1  UNL1       -0.4742
     26 C         139.3282  143.9968  163.3352 C.3     1  UNL1        0.2053
     27 C         139.7574  143.7544  160.7843 C.3     1  UNL1        0.0038
     28 C         139.6172  144.6197  162.0016 C.3     1  UNL1        0.0438
     29 C         139.7661  146.1077  161.8853 C.3     1  UNL1        0.0038
@<TRIPOS>BOND
     1    27    28    1
     2    28    29    1
     3    28    26    1
     4    26    25    1
     5    25     1    1
     6     1     2   ar
     7     2     3   ar
     8     3     4   ar
     9     4     5   ar
    10     5     7    1
    11     7     8    2
    12     8     9    1
    13     9    10    1
    14    10    11    2
    15    10    12   am
    16    12    13   am
    17    13    14    2
    18     5     6   ar
    19     6    16    1
    20    16    17    1
    21    17    18    1
    22    18    19    1
    23    19    20    1
    24    20    21    1
    25    20    22    1
    26     6     1   ar
    27    22    16    1
    28    13     8    1
    29    12    15    1
    30    21    23    1
    31    21    24    1
@<TRIPOS>MOLECULE
*****
 29 31 0 0 0
SMALL
GASTEIGER

@<TRIPOS>ATOM
      1 C         142.7286  141.2744  162.9895 C.ar    1  UNL1        0.1517
      2 C         143.8221  140.2551  162.8667 C.ar    1  UNL1        0.0382
      3 C         143.8702  139.0894  163.8095 C.ar    1  UNL1        0.0032
      4 C         142.8247  138.9431  164.8751 C.ar    1  UNL1        0.0014
      5 C         141.7312  139.9624  164.9979 C.ar    1  UNL1        0.0170
      6 C         141.6831  141.1281  164.0551 C.ar    1  UNL1        0.0823
      7 C         140.6857  139.8161  166.0636 C.2     1  UNL1        0.0125
      8 C         141.0702  139.9150  167.5101 C.2     1  UNL1        0.0873
      9 S         142.4525  140.1560  168.0405 S.3     1  UNL1       -0.0254
     10 C         142.3766  140.1802  169.5384 C.2     1  UNL1        0.2832
     11 O         143.5277  140.3931  170.4762 O.2     1  UNL1       -0.2622
     12 N         140.9474  139.9542  169.9337 N.am    1  UNL1       -0.2425
     13 C         140.1400  139.7903  168.6802 C.2     1  UNL1        0.2583
     14 O         138.6620  139.5448  168.6093 O.2     1  UNL1       -0.2692
     15 H         140.6002  139.9195  170.8543 H       1  UNL1        0.1587
     16 N         140.5895  142.1475  164.1779 N.pl3   1  UNL1       -0.3038
     17 C         140.4962  143.0030  165.4065 C.3     1  UNL1        0.0910
     18 C         139.4026  144.0223  165.5293 C.3     1  UNL1        0.0228
     19 C         138.4024  144.1861  164.4236 C.3     1  UNL1        0.0190
     20 C         138.4958  143.3305  163.1950 C.3     1  UNL1        0.0709
     21 N         137.4955  143.4943  162.0892 N.3     1  UNL1       -0.3208
     22 C         139.5893  142.3113  163.0722 C.3     1  UNL1        0.1062
     23 H         136.8295  144.2254  162.3388 H       1  UNL1        0.1189
     24 H         136.9981  142.6152  161.9477 H       1  UNL1        0.1189
     25 O         142.6805  142.4401  162.0466 O.3     1  UNL1       -0.4742
     26 C         143.5138  143.6577  162.3164 C.3     1  UNL1        0.2053
     27 C         144.2127  144.0516  164.7875 C.3     1  UNL1        0.0038
     28 C         143.3555  144.4038  163.6080 C.3     1  UNL1        0.0438
     29 C         142.3401  145.5022  163.7201 C.3     1  UNL1        0.0038
@<TRIPOS>BOND
     1    27    28    1
     2    28    29    1
     3    28    26    1
     4    26    25    1
     5    25     1    1
     6     1     2   ar
     7     2     3   ar
     8     3     4   ar
     9     4     5   ar
    10     5     7    1
    11     7     8    2
    12     8     9    1
    13     9    10    1
    14    10    11    2
    15    10    12   am
    16    12    13   am
    17    13    14    2
    18     5     6   ar
    19     6    16    1
    20    16    17    1
    21    17    18    1
    22    18    19    1
    23    19    20    1
    24    20    21    1
    25    20    22    1
    26     6     1   ar
    27    22    16    1
    28    13     8    1
    29    12    15    1
    30    21    23    1
    31    21    24    1
