@<TRIPOS>MOLECULE
*****
 43 45 0 0 0
SMALL
GASTEIGER

@<TRIPOS>ATOM
      1 C         139.8961  143.0472  161.1471 C.3     1  UNL1        0.1518
      2 C         139.6459  143.2996  159.6898 C.3     1  UNL1        0.0310
      3 C         140.8853  143.9100  159.1056 C.3     1  UNL1        0.0237
      4 C         141.9015  144.0349  160.2019 C.3     1  UNL1        0.0939
      5 N         141.2901  143.5017  161.4636 N.am    1  UNL1       -0.2730
      6 C         141.9560  143.4347  162.8060 C.2     1  UNL1        0.2273
      7 O         141.2154  142.8726  163.9832 O.2     1  UNL1       -0.2748
      8 N         139.1403  141.0538  162.6320 N.am    1  UNL1       -0.2991
      9 C         138.9231  142.4460  162.1176 C.2     1  UNL1        0.2408
     10 O         137.7329  143.2369  162.5736 O.2     1  UNL1       -0.2733
     11 H         139.9214  140.5347  162.3328 H       1  UNL1        0.1498
     12 C         138.1673  140.4525  163.6025 C.3     1  UNL1        0.1164
     13 C         139.2616  140.0889  167.9522 C.ar    1  UNL1        0.1389
     14 C         139.7725  141.2449  167.1444 C.ar    1  UNL1        0.0366
     15 C         139.4078  141.3661  165.6945 C.ar    1  UNL1        0.0005
     16 C         138.5321  140.3313  165.0524 C.ar    1  UNL1       -0.0024
     17 C         138.0212  139.1753  165.8602 C.ar    1  UNL1        0.0005
     18 C         138.3859  139.0541  167.3101 C.ar    1  UNL1        0.0366
     19 O         139.6264  139.9677  169.4021 O.3     1  UNL1       -0.4736
     20 C         140.7137  140.8268  169.9763 C.3     1  UNL1        0.2017
     21 C         142.5235  138.9634  169.9268 C.3     1  UNL1        0.0041
     22 C         142.1487  140.4131  169.8371 C.3     1  UNL1        0.0456
     23 C         143.2091  141.4490  169.6082 C.3     1  UNL1        0.0041
     24 C         140.3659  142.0997  170.6897 C.2     1  UNL1        0.0900
     25 O         139.9443  143.3074  169.9064 O.co2   1  UNL1       -0.5455
     26 O         140.4397  142.1648  172.1865 O.co2   1  UNL1       -0.5455
     27 C         143.3621  143.9298  162.9714 C.3     1  UNL1        0.1010
     28 C         144.5173  143.0155  162.6896 C.3     1  UNL1        0.0645
     29 N         145.2549  143.1182  161.3875 N.3     1  UNL1       -0.3215
     30 H         144.8399  143.8565  160.8190 H       1  UNL1        0.1188
     31 H         145.1919  142.2300  160.8901 H       1  UNL1        0.1188
     32 C         144.9350  141.9983  163.7099 C.3     1  UNL1        0.0470
     33 C         144.1193  140.7550  163.9070 C.ar    1  UNL1        0.0387
     34 C         143.4282  140.5111  165.2158 C.ar    1  UNL1        0.1680
     35 F         143.5529  141.5104  166.3275 F       1  UNL1       -0.2020
     36 C         142.6126  139.2678  165.4129 C.ar    1  UNL1        0.1967
     37 F         141.9215  139.0238  166.7217 F       1  UNL1       -0.1993
     38 C         142.4879  138.2684  164.3013 C.ar    1  UNL1        0.1991
     39 F         141.6722  137.0251  164.4983 F       1  UNL1       -0.1993
     40 C         143.1790  138.5124  162.9925 C.ar    1  UNL1        0.1967
     41 F         143.0544  137.5131  161.8808 F       1  UNL1       -0.1993
     42 C         143.9947  139.7557  162.7953 C.ar    1  UNL1        0.1680
     43 F         144.6858  139.9997  161.4865 F       1  UNL1       -0.2020
@<TRIPOS>UNITY_ATOM_ATTR
25 1
charge -1
@<TRIPOS>BOND
     1    21    22    1
     2    22    23    1
     3    22    20    1
     4    20    19    1
     5    19    13    1
     6    13    14   ar
     7    14    15   ar
     8    15    16   ar
     9    16    12    1
    10    12     8    1
    11     8     9   am
    12     9    10    2
    13     1     9    1
    14     1     2    1
    15     2     3    1
    16     3     4    1
    17     4     5    1
    18     5     6   am
    19     6     7    2
    20     6    27    1
    21    27    28    1
    22    28    29    1
    23    28    32    1
    24    32    33    1
    25    33    34   ar
    26    34    35    1
    27    34    36   ar
    28    36    37    1
    29    36    38   ar
    30    38    39    1
    31    38    40   ar
    32    40    41    1
    33    40    42   ar
    34    42    43    1
    35    16    17   ar
    36    17    18   ar
    37    20    24    1
    38    24    25   ar
    39    24    26   ar
    40    18    13   ar
    41     5     1    1
    42    42    33   ar
    43     8    11    1
    44    29    30    1
    45    29    31    1
@<TRIPOS>MOLECULE
*****
 43 45 0 0 0
SMALL
GASTEIGER

@<TRIPOS>ATOM
      1 C         140.1653  142.8850  161.1402 C.3     1  UNL1        0.1518
      2 C         139.9114  143.1740  159.6904 C.3     1  UNL1        0.0310
      3 C         141.1971  143.6476  159.0800 C.3     1  UNL1        0.0237
      4 C         142.2457  143.6513  160.1526 C.3     1  UNL1        0.0939
      5 N         141.6080  143.1800  161.4259 N.am    1  UNL1       -0.2730
      6 C         142.2928  143.0300  162.7520 C.2     1  UNL1        0.2273
      7 O         141.5216  142.5448  163.9437 O.2     1  UNL1       -0.2748
      8 N         139.2292  140.9778  162.6358 N.am    1  UNL1       -0.2991
      9 C         139.1541  142.3882  162.1305 C.2     1  UNL1        0.2408
     10 O         138.0677  143.3017  162.6155 O.2     1  UNL1       -0.2733
     11 H         139.9423  140.3783  162.3175 H       1  UNL1        0.1498
     12 C         138.2180  140.4810  163.6260 C.3     1  UNL1        0.1164
     13 C         139.3378  140.0541  167.9635 C.ar    1  UNL1        0.1389
     14 C         139.9013  141.1819  167.1510 C.ar    1  UNL1        0.0366
     15 C         139.5281  141.3243  165.7052 C.ar    1  UNL1        0.0005
     16 C         138.5913  140.3387  165.0719 C.ar    1  UNL1       -0.0024
     17 C         138.0278  139.2108  165.8844 C.ar    1  UNL1        0.0005
     18 C         138.4010  139.0685  167.3302 C.ar    1  UNL1        0.0366
     19 O         139.7110  139.9117  169.4094 O.3     1  UNL1       -0.4736
     20 C         140.8000  140.7641  169.9903 C.3     1  UNL1        0.2017
     21 C         143.2995  141.3985  169.6741 C.3     1  UNL1        0.0041
     22 C         142.2349  140.3546  169.8380 C.3     1  UNL1        0.0456
     23 C         142.6053  138.9011  169.8496 C.3     1  UNL1        0.0041
     24 C         140.4540  142.0262  170.7235 C.2     1  UNL1        0.0900
     25 O         140.4731  142.0516  172.2231 O.co2   1  UNL1       -0.5455
     26 O         140.0891  143.2629  169.9570 O.co2   1  UNL1       -0.5455
     27 C         143.7486  143.3651  162.8866 C.3     1  UNL1        0.1010
     28 C         144.7894  142.3542  162.5060 C.3     1  UNL1        0.0645
     29 N         145.5886  142.5371  161.2499 N.3     1  UNL1       -0.3215
     30 H         145.2951  143.3946  160.7820 H       1  UNL1        0.1188
     31 H         145.4345  141.7417  160.6301 H       1  UNL1        0.1188
     32 C         145.0309  141.1604  163.3815 C.3     1  UNL1        0.0470
     33 C         144.0227  140.0509  163.4317 C.ar    1  UNL1        0.0387
     34 C         143.7960  139.1884  162.2255 C.ar    1  UNL1        0.1680
     35 F         144.5774  139.4354  160.9693 F       1  UNL1       -0.2020
     36 C         142.7878  138.0789  162.2758 C.ar    1  UNL1        0.1967
     37 F         142.5611  137.2164  161.0697 F       1  UNL1       -0.1993
     38 C         142.0063  137.8318  163.5321 C.ar    1  UNL1        0.1991
     39 F         140.9982  136.7223  163.5823 F       1  UNL1       -0.1993
     40 C         142.2331  138.6943  164.7382 C.ar    1  UNL1        0.1967
     41 F         141.4516  138.4473  165.9945 F       1  UNL1       -0.1993
     42 C         143.2413  139.8039  164.6880 C.ar    1  UNL1        0.1680
     43 F         143.4680  140.6664  165.8941 F       1  UNL1       -0.2020
@<TRIPOS>UNITY_ATOM_ATTR
25 1
charge -1
@<TRIPOS>BOND
     1    21    22    1
     2    22    23    1
     3    22    20    1
     4    20    19    1
     5    19    13    1
     6    13    14   ar
     7    14    15   ar
     8    15    16   ar
     9    16    12    1
    10    12     8    1
    11     8     9   am
    12     9    10    2
    13     1     9    1
    14     1     2    1
    15     2     3    1
    16     3     4    1
    17     4     5    1
    18     5     6   am
    19     6     7    2
    20     6    27    1
    21    27    28    1
    22    28    29    1
    23    28    32    1
    24    32    33    1
    25    33    34   ar
    26    34    35    1
    27    34    36   ar
    28    36    37    1
    29    36    38   ar
    30    38    39    1
    31    38    40   ar
    32    40    41    1
    33    40    42   ar
    34    42    43    1
    35    16    17   ar
    36    17    18   ar
    37    20    24    1
    38    24    25   ar
    39    24    26   ar
    40    18    13   ar
    41     5     1    1
    42    42    33   ar
    43     8    11    1
    44    29    30    1
    45    29    31    1
@<TRIPOS>MOLECULE
*****
 43 45 0 0 0
SMALL
GASTEIGER

@<TRIPOS>ATOM
      1 C         141.9232  138.4509  161.6840 C.3     1  UNL1        0.1518
      2 C         141.9487  138.0831  160.2300 C.3     1  UNL1        0.0310
      3 C         143.2787  138.4940  159.6712 C.3     1  UNL1        0.0237
      4 C         144.0751  139.1158  160.7799 C.3     1  UNL1        0.0939
      5 N         143.2374  139.0891  162.0239 N.am    1  UNL1       -0.2730
      6 C         143.6427  139.6093  163.3711 C.2     1  UNL1        0.2273
      7 O         142.6935  139.5135  164.5287 O.2     1  UNL1       -0.2748
      8 N         139.7593  139.2951  162.8480 N.am    1  UNL1       -0.2991
      9 C         140.7835  138.2207  162.6318 C.2     1  UNL1        0.2408
     10 O         140.6681  136.9163  163.3633 O.2     1  UNL1       -0.2733
     11 H         139.8350  140.1512  162.3679 H       1  UNL1        0.1498
     12 C         138.6196  139.0650  163.7958 C.3     1  UNL1        0.1164
     13 C         139.1673  139.8182  168.1983 C.ar    1  UNL1        0.1389
     14 C         140.0366  140.5269  167.2024 C.ar    1  UNL1        0.0366
     15 C         139.8540  140.2759  165.7348 C.ar    1  UNL1        0.0005
     16 C         138.8022  139.3161  165.2633 C.ar    1  UNL1       -0.0024
     17 C         137.9329  138.6073  166.2593 C.ar    1  UNL1        0.0005
     18 C         138.1155  138.8584  167.7268 C.ar    1  UNL1        0.0366
     19 O         139.3499  140.0692  169.6659 O.3     1  UNL1       -0.4736
     20 C         140.4856  140.9239  170.1450 C.3     1  UNL1        0.2017
     21 C         143.0141  141.4392  169.8423 C.3     1  UNL1        0.0041
     22 C         141.8995  140.4466  169.9927 C.3     1  UNL1        0.0456
     23 C         142.1989  138.9768  169.9907 C.3     1  UNL1        0.0041
     24 C         140.2076  142.2558  170.7764 C.2     1  UNL1        0.0900
     25 O         140.2695  142.4065  172.2676 O.co2   1  UNL1       -0.5455
     26 O         139.8676  143.4370  169.9167 O.co2   1  UNL1       -0.5455
     27 C         144.9971  140.2253  163.5609 C.3     1  UNL1        0.1010
     28 C         145.2030  141.6848  163.2824 C.3     1  UNL1        0.0645
     29 N         145.8893  142.1181  162.0209 N.3     1  UNL1       -0.3215
     30 H         146.1464  141.2962  161.4742 H       1  UNL1        0.1188
     31 H         146.7294  142.6469  162.2553 H       1  UNL1        0.1188
     32 C         144.7227  142.7110  164.2654 C.3     1  UNL1        0.0470
     33 C         143.3546  143.3081  164.1179 C.ar    1  UNL1        0.0387
     34 C         142.3394  143.1354  165.2087 C.ar    1  UNL1        0.1680
     35 F         142.6923  142.3657  166.4467 F       1  UNL1       -0.2020
     36 C         140.9714  143.7326  165.0613 C.ar    1  UNL1        0.1967
     37 F         139.9562  143.5599  166.1519 F       1  UNL1       -0.1993
     38 C         140.6184  144.5024  163.8232 C.ar    1  UNL1        0.1991
     39 F         139.2503  145.0995  163.6758 F       1  UNL1       -0.1993
     40 C         141.6335  144.6750  162.7325 C.ar    1  UNL1        0.1967
     41 F         141.2806  145.4448  161.4944 F       1  UNL1       -0.1993
     42 C         143.0017  144.0779  162.8798 C.ar    1  UNL1        0.1680
     43 F         144.0169  144.2506  161.7892 F       1  UNL1       -0.2020
@<TRIPOS>UNITY_ATOM_ATTR
25 1
charge -1
@<TRIPOS>BOND
     1    21    22    1
     2    22    23    1
     3    22    20    1
     4    20    19    1
     5    19    13    1
     6    13    14   ar
     7    14    15   ar
     8    15    16   ar
     9    16    12    1
    10    12     8    1
    11     8     9   am
    12     9    10    2
    13     1     9    1
    14     1     2    1
    15     2     3    1
    16     3     4    1
    17     4     5    1
    18     5     6   am
    19     6     7    2
    20     6    27    1
    21    27    28    1
    22    28    29    1
    23    28    32    1
    24    32    33    1
    25    33    34   ar
    26    34    35    1
    27    34    36   ar
    28    36    37    1
    29    36    38   ar
    30    38    39    1
    31    38    40   ar
    32    40    41    1
    33    40    42   ar
    34    42    43    1
    35    16    17   ar
    36    17    18   ar
    37    20    24    1
    38    24    25   ar
    39    24    26   ar
    40    18    13   ar
    41     5     1    1
    42    42    33   ar
    43     8    11    1
    44    29    30    1
    45    29    31    1
@<TRIPOS>MOLECULE
*****
 43 45 0 0 0
SMALL
GASTEIGER

@<TRIPOS>ATOM
      1 C         141.4757  138.8117  159.9548 C.3     1  UNL1        0.1518
      2 C         141.2793  138.2782  158.5667 C.3     1  UNL1        0.0310
      3 C         142.0829  139.1264  157.6261 C.3     1  UNL1        0.0237
      4 C         142.7759  140.1842  158.4329 C.3     1  UNL1        0.0939
      5 N         142.4006  139.9897  159.8721 N.am    1  UNL1       -0.2730
      6 C         142.8681  140.8263  161.0259 C.2     1  UNL1        0.2273
      7 O         142.4059  140.5099  162.4175 O.2     1  UNL1       -0.2748
      8 N         141.7166  137.6043  162.2427 N.am    1  UNL1       -0.2991
      9 C         140.8559  138.2634  161.2060 C.2     1  UNL1        0.2408
     10 O         139.3754  138.3743  161.4203 O.2     1  UNL1       -0.2733
     11 H         142.6882  137.5316  162.1019 H       1  UNL1        0.1498
     12 C         141.0968  137.0561  163.4938 C.3     1  UNL1        0.1164
     13 C         139.9819  139.8320  166.8555 C.ar    1  UNL1        0.1389
     14 C         141.4234  139.6407  166.4876 C.ar    1  UNL1        0.0366
     15 C         141.7950  138.7154  165.3670 C.ar    1  UNL1        0.0005
     16 C         140.7252  137.9814  164.6144 C.ar    1  UNL1       -0.0024
     17 C         139.2837  138.1727  164.9823 C.ar    1  UNL1        0.0005
     18 C         138.9120  139.0980  166.1028 C.ar    1  UNL1        0.0366
     19 O         139.6102  140.7573  167.9761 O.3     1  UNL1       -0.4736
     20 C         140.5545  140.9631  169.1232 C.3     1  UNL1        0.2017
     21 C         140.6441  143.4926  169.7095 C.3     1  UNL1        0.0041
     22 C         141.3276  142.2434  169.2379 C.3     1  UNL1        0.0456
     23 C         142.7841  142.2746  168.8809 C.3     1  UNL1        0.0041
     24 C         140.7256  139.8886  170.1558 C.2     1  UNL1        0.0900
     25 O         141.9825  139.0704  170.1855 O.co2   1  UNL1       -0.5455
     26 O         139.6400  139.6324  171.1587 O.co2   1  UNL1       -0.5455
     27 C         143.7978  141.9792  160.7884 C.3     1  UNL1        0.1010
     28 C         144.5202  142.6102  161.9416 C.3     1  UNL1        0.0645
     29 N         145.7314  141.9433  162.5233 N.3     1  UNL1       -0.3215
     30 H         145.9194  141.0782  162.0167 H       1  UNL1        0.1188
     31 H         145.5636  141.7317  163.5069 H       1  UNL1        0.1188
     32 C         144.0314  143.9080  162.5132 C.3     1  UNL1        0.0470
     33 C         142.6311  144.0155  163.0399 C.ar    1  UNL1        0.0387
     34 C         142.3080  143.5194  164.4182 C.ar    1  UNL1        0.1680
     35 F         143.3852  142.9159  165.2697 F       1  UNL1       -0.2020
     36 C         140.9076  143.6269  164.9448 C.ar    1  UNL1        0.1967
     37 F         140.5845  143.1308  166.3230 F       1  UNL1       -0.1993
     38 C         139.8303  144.2305  164.0933 C.ar    1  UNL1        0.1991
     39 F         138.4299  144.3380  164.6199 F       1  UNL1       -0.1993
     40 C         140.1534  144.7266  162.7151 C.ar    1  UNL1        0.1967
     41 F         139.0761  145.3302  161.8635 F       1  UNL1       -0.1993
     42 C         141.5538  144.6191  162.1883 C.ar    1  UNL1        0.1680
     43 F         141.8769  145.1152  160.8101 F       1  UNL1       -0.2020
@<TRIPOS>UNITY_ATOM_ATTR
25 1
charge -1
@<TRIPOS>BOND
     1    21    22    1
     2    22    23    1
     3    22    20    1
     4    20    19    1
     5    19    13    1
     6    13    14   ar
     7    14    15   ar
     8    15    16   ar
     9    16    12    1
    10    12     8    1
    11     8     9   am
    12     9    10    2
    13     1     9    1
    14     1     2    1
    15     2     3    1
    16     3     4    1
    17     4     5    1
    18     5     6   am
    19     6     7    2
    20     6    27    1
    21    27    28    1
    22    28    29    1
    23    28    32    1
    24    32    33    1
    25    33    34   ar
    26    34    35    1
    27    34    36   ar
    28    36    37    1
    29    36    38   ar
    30    38    39    1
    31    38    40   ar
    32    40    41    1
    33    40    42   ar
    34    42    43    1
    35    16    17   ar
    36    17    18   ar
    37    20    24    1
    38    24    25   ar
    39    24    26   ar
    40    18    13   ar
    41     5     1    1
    42    42    33   ar
    43     8    11    1
    44    29    30    1
    45    29    31    1
@<TRIPOS>MOLECULE
*****
 43 45 0 0 0
SMALL
GASTEIGER

@<TRIPOS>ATOM
      1 C         141.7798  138.5565  161.4366 C.3     1  UNL1        0.1518
      2 C         141.8032  138.1547  159.9916 C.3     1  UNL1        0.0310
      3 C         143.1317  138.5537  159.4209 C.3     1  UNL1        0.0237
      4 C         143.9295  139.2022  160.5132 C.3     1  UNL1        0.0939
      5 N         143.0939  139.2039  161.7589 N.am    1  UNL1       -0.2730
      6 C         143.5011  139.7560  163.0929 C.2     1  UNL1        0.2273
      7 O         142.5540  139.6865  164.2541 O.2     1  UNL1       -0.2748
      8 N         139.6762  139.4626  162.6628 N.am    1  UNL1       -0.2991
      9 C         140.6421  138.3475  162.3915 C.2     1  UNL1        0.2408
     10 O         140.4702  137.0235  163.0752 O.2     1  UNL1       -0.2733
     11 H         139.7890  140.3316  162.2141 H       1  UNL1        0.1498
     12 C         138.5384  139.2537  163.6177 C.3     1  UNL1        0.1164
     13 C         139.1673  139.8545  168.0328 C.ar    1  UNL1        0.1389
     14 C         138.2012  138.8147  167.5475 C.ar    1  UNL1        0.0366
     15 C         137.9916  138.6145  166.0758 C.ar    1  UNL1        0.0005
     16 C         138.7481  139.4540  165.0894 C.ar    1  UNL1       -0.0024
     17 C         139.7142  140.4937  165.5747 C.ar    1  UNL1        0.0005
     18 C         139.9238  140.6939  167.0464 C.ar    1  UNL1        0.0366
     19 O         139.3770  140.0547  169.5046 O.3     1  UNL1       -0.4736
     20 C         140.5208  140.8938  169.9919 C.3     1  UNL1        0.2017
     21 C         142.2976  139.0024  169.8664 C.3     1  UNL1        0.0041
     22 C         141.9331  140.4525  169.7454 C.3     1  UNL1        0.0456
     23 C         142.9808  141.4611  169.3781 C.3     1  UNL1        0.0041
     24 C         140.2524  142.1743  170.7256 C.2     1  UNL1        0.0900
     25 O         140.3664  142.2201  172.2206 O.co2   1  UNL1       -0.5455
     26 O         139.8700  143.4089  169.9645 O.co2   1  UNL1       -0.5455
     27 C         144.8551  140.3777  163.2657 C.3     1  UNL1        0.1010
     28 C         145.0608  141.8286  162.9453 C.3     1  UNL1        0.0645
     29 N         145.7446  142.2255  161.6706 N.3     1  UNL1       -0.3215
     30 H         146.0004  141.3883  161.1470 H       1  UNL1        0.1188
     31 H         146.5853  142.7606  161.8881 H       1  UNL1        0.1188
     32 C         144.5827  142.8825  163.8995 C.3     1  UNL1        0.0470
     33 C         143.1857  143.4173  163.7879 C.ar    1  UNL1        0.0387
     34 C         142.7287  144.0608  162.5123 C.ar    1  UNL1        0.1680
     35 F         143.6686  144.1696  161.3485 F       1  UNL1       -0.2020
     36 C         141.3318  144.5956  162.4007 C.ar    1  UNL1        0.1967
     37 F         140.8747  145.2391  161.1252 F       1  UNL1       -0.1993
     38 C         140.3917  144.4869  163.5646 C.ar    1  UNL1        0.1991
     39 F         138.9948  145.0216  163.4530 F       1  UNL1       -0.1993
     40 C         140.8488  143.8434  164.8401 C.ar    1  UNL1        0.1967
     41 F         139.9088  143.7346  166.0040 F       1  UNL1       -0.1993
     42 C         142.2458  143.3085  164.9518 C.ar    1  UNL1        0.1680
     43 F         142.7028  142.6650  166.2274 F       1  UNL1       -0.2020
@<TRIPOS>UNITY_ATOM_ATTR
25 1
charge -1
@<TRIPOS>BOND
     1    21    22    1
     2    22    23    1
     3    22    20    1
     4    20    19    1
     5    19    13    1
     6    13    14   ar
     7    14    15   ar
     8    15    16   ar
     9    16    12    1
    10    12     8    1
    11     8     9   am
    12     9    10    2
    13     1     9    1
    14     1     2    1
    15     2     3    1
    16     3     4    1
    17     4     5    1
    18     5     6   am
    19     6     7    2
    20     6    27    1
    21    27    28    1
    22    28    29    1
    23    28    32    1
    24    32    33    1
    25    33    34   ar
    26    34    35    1
    27    34    36   ar
    28    36    37    1
    29    36    38   ar
    30    38    39    1
    31    38    40   ar
    32    40    41    1
    33    40    42   ar
    34    42    43    1
    35    16    17   ar
    36    17    18   ar
    37    20    24    1
    38    24    25   ar
    39    24    26   ar
    40    18    13   ar
    41     5     1    1
    42    42    33   ar
    43     8    11    1
    44    29    30    1
    45    29    31    1
@<TRIPOS>MOLECULE
*****
 43 45 0 0 0
SMALL
GASTEIGER

@<TRIPOS>ATOM
      1 C         143.8547  142.4038  160.1006 C.3     1  UNL1        0.1518
      2 C         144.5201  142.4063  158.7563 C.3     1  UNL1        0.0310
      3 C         143.7137  143.2797  157.8415 C.3     1  UNL1        0.0237
      4 C         142.5498  143.8170  158.6205 C.3     1  UNL1        0.0939
      5 N         142.6370  143.2756  160.0167 N.am    1  UNL1       -0.2730
      6 C         141.6753  143.5568  161.1330 C.2     1  UNL1        0.2273
      7 O         141.8929  142.9409  162.4833 O.2     1  UNL1       -0.2748
      8 N         144.9094  142.4107  162.4750 N.am    1  UNL1       -0.2991
      9 C         144.3245  141.6599  161.3156 C.2     1  UNL1        0.2408
     10 O         144.2095  140.1654  161.3711 O.2     1  UNL1       -0.2733
     11 H         144.9849  143.3916  162.4386 H       1  UNL1        0.1498
     12 C         145.3792  141.6670  163.6899 C.3     1  UNL1        0.1164
     13 C         142.3849  140.0204  166.6179 C.ar    1  UNL1        0.1389
     14 C         142.5389  141.5037  166.4569 C.ar    1  UNL1        0.0366
     15 C         143.5371  142.0526  165.4810 C.ar    1  UNL1        0.0005
     16 C         144.3811  141.1181  164.6659 C.ar    1  UNL1       -0.0024
     17 C         144.2270  139.6348  164.8269 C.ar    1  UNL1        0.0005
     18 C         143.2289  139.0859  165.8028 C.ar    1  UNL1        0.0366
     19 O         141.3868  139.4715  167.5938 O.3     1  UNL1       -0.4736
     20 C         141.3256  140.0160  168.9902 C.3     1  UNL1        0.2017
     21 C         140.4356  142.4449  169.2316 C.3     1  UNL1        0.0041
     22 C         140.2313  140.9660  169.3775 C.3     1  UNL1        0.0456
     23 C         138.9329  140.4372  169.9107 C.3     1  UNL1        0.0041
     24 C         142.3588  139.6104  169.9993 C.2     1  UNL1        0.0900
     25 O         143.0849  138.3068  169.8467 O.co2   1  UNL1       -0.5455
     26 O         142.6657  140.5085  171.1608 O.co2   1  UNL1       -0.5455
     27 C         140.4960  144.4537  160.8990 C.3     1  UNL1        0.1010
     28 C         139.9117  145.2368  162.0371 C.3     1  UNL1        0.0645
     29 N         140.5886  146.4884  162.5118 N.3     1  UNL1       -0.3215
     30 H         141.4251  146.6556  161.9526 H       1  UNL1        0.1188
     31 H         140.8504  146.3825  163.4920 H       1  UNL1        0.1188
     32 C         138.6506  144.7683  162.7005 C.3     1  UNL1        0.0470
     33 C         138.5262  143.3440  163.1540 C.ar    1  UNL1        0.0387
     34 C         138.9106  142.9664  164.5540 C.ar    1  UNL1        0.1680
     35 F         139.4192  144.0132  165.5002 F       1  UNL1       -0.2020
     36 C         138.7862  141.5421  165.0076 C.ar    1  UNL1        0.1967
     37 F         139.1705  141.1645  166.4075 F       1  UNL1       -0.1993
     38 C         138.2775  140.4952  164.0613 C.ar    1  UNL1        0.1991
     39 F         138.1531  139.0709  164.5149 F       1  UNL1       -0.1993
     40 C         137.8931  140.8728  162.6614 C.ar    1  UNL1        0.1967
     41 F         137.3844  139.8261  161.7151 F       1  UNL1       -0.1993
     42 C         138.0175  142.2972  162.2077 C.ar    1  UNL1        0.1680
     43 F         137.6331  142.6748  160.8078 F       1  UNL1       -0.2020
@<TRIPOS>UNITY_ATOM_ATTR
25 1
charge -1
@<TRIPOS>BOND
     1    21    22    1
     2    22    23    1
     3    22    20    1
     4    20    19    1
     5    19    13    1
     6    13    14   ar
     7    14    15   ar
     8    15    16   ar
     9    16    12    1
    10    12     8    1
    11     8     9   am
    12     9    10    2
    13     1     9    1
    14     1     2    1
    15     2     3    1
    16     3     4    1
    17     4     5    1
    18     5     6   am
    19     6     7    2
    20     6    27    1
    21    27    28    1
    22    28    29    1
    23    28    32    1
    24    32    33    1
    25    33    34   ar
    26    34    35    1
    27    34    36   ar
    28    36    37    1
    29    36    38   ar
    30    38    39    1
    31    38    40   ar
    32    40    41    1
    33    40    42   ar
    34    42    43    1
    35    16    17   ar
    36    17    18   ar
    37    20    24    1
    38    24    25   ar
    39    24    26   ar
    40    18    13   ar
    41     5     1    1
    42    42    33   ar
    43     8    11    1
    44    29    30    1
    45    29    31    1
@<TRIPOS>MOLECULE
*****
 43 45 0 0 0
SMALL
GASTEIGER

@<TRIPOS>ATOM
      1 C         138.8482  141.9376  159.8282 C.3     1  UNL1        0.1518
      2 C         138.2815  142.4914  158.5545 C.3     1  UNL1        0.0310
      3 C         139.0710  141.9259  157.4114 C.3     1  UNL1        0.0237
      4 C         140.1256  141.0225  157.9785 C.3     1  UNL1        0.0939
      5 N         139.9879  141.0297  159.4721 N.am    1  UNL1       -0.2730
      6 C         140.8404  140.2636  160.4398 C.2     1  UNL1        0.2273
      7 O         140.5828  140.3703  161.9137 O.2     1  UNL1       -0.2748
      8 N         137.8639  141.1285  162.0924 N.am    1  UNL1       -0.2991
      9 C         138.3607  142.2387  161.2145 C.2     1  UNL1        0.2408
     10 O         138.3700  143.6499  161.7227 O.2     1  UNL1       -0.2733
     11 H         137.8577  140.2023  161.7588 H       1  UNL1        0.1498
     12 C         137.3764  141.4296  163.4786 C.3     1  UNL1        0.1164
     13 C         139.9690  140.4784  167.0316 C.ar    1  UNL1        0.1389
     14 C         140.1429  141.7777  166.3026 C.ar    1  UNL1        0.0366
     15 C         139.2787  142.0948  165.1183 C.ar    1  UNL1        0.0005
     16 C         138.2406  141.1125  164.6629 C.ar    1  UNL1       -0.0024
     17 C         138.0667  139.8132  165.3919 C.ar    1  UNL1        0.0005
     18 C         138.9309  139.4961  166.5762 C.ar    1  UNL1        0.0366
     19 O         140.8332  140.1613  168.2159 O.3     1  UNL1       -0.4736
     20 C         140.8017  141.0472  169.4259 C.3     1  UNL1        0.2017
     21 C         142.9376  142.4947  169.1217 C.3     1  UNL1        0.0041
     22 C         141.4650  142.3920  169.3884 C.3     1  UNL1        0.0456
     23 C         140.6559  143.6340  169.6175 C.3     1  UNL1        0.0041
     24 C         140.1069  140.5882  170.6736 C.2     1  UNL1        0.0900
     25 O         140.6431  140.9808  172.0184 O.co2   1  UNL1       -0.5455
     26 O         138.8759  139.7367  170.5766 O.co2   1  UNL1       -0.5455
     27 C         141.9503  139.3908  159.9337 C.3     1  UNL1        0.1010
     28 C         142.7981  138.6190  160.9010 C.3     1  UNL1        0.0645
     29 N         142.3553  137.2656  161.3722 N.3     1  UNL1       -0.3215
     30 H         141.4634  137.0292  160.9374 H       1  UNL1        0.1188
     31 H         142.2466  137.2775  162.3864 H       1  UNL1        0.1188
     32 C         144.0887  139.2007  161.3969 C.3     1  UNL1        0.0470
     33 C         144.0754  140.2517  162.4671 C.ar    1  UNL1        0.0387
     34 C         143.7007  139.8860  163.8728 C.ar    1  UNL1        0.1680
     35 F         143.3394  138.4695  164.2083 F       1  UNL1       -0.2020
     36 C         143.6875  140.9370  164.9429 C.ar    1  UNL1        0.1967
     37 F         143.3128  140.5714  166.3486 F       1  UNL1       -0.1993
     38 C         144.0489  142.3537  164.6075 C.ar    1  UNL1        0.1991
     39 F         144.0356  143.4047  165.6776 F       1  UNL1       -0.1993
     40 C         144.4235  142.7193  163.2018 C.ar    1  UNL1        0.1967
     41 F         144.7849  144.1360  162.8663 F       1  UNL1       -0.1993
     42 C         144.4368  141.6684  162.1315 C.ar    1  UNL1        0.1680
     43 F         144.8115  142.0340  160.7259 F       1  UNL1       -0.2020
@<TRIPOS>UNITY_ATOM_ATTR
25 1
charge -1
@<TRIPOS>BOND
     1    21    22    1
     2    22    23    1
     3    22    20    1
     4    20    19    1
     5    19    13    1
     6    13    14   ar
     7    14    15   ar
     8    15    16   ar
     9    16    12    1
    10    12     8    1
    11     8     9   am
    12     9    10    2
    13     1     9    1
    14     1     2    1
    15     2     3    1
    16     3     4    1
    17     4     5    1
    18     5     6   am
    19     6     7    2
    20     6    27    1
    21    27    28    1
    22    28    29    1
    23    28    32    1
    24    32    33    1
    25    33    34   ar
    26    34    35    1
    27    34    36   ar
    28    36    37    1
    29    36    38   ar
    30    38    39    1
    31    38    40   ar
    32    40    41    1
    33    40    42   ar
    34    42    43    1
    35    16    17   ar
    36    17    18   ar
    37    20    24    1
    38    24    25   ar
    39    24    26   ar
    40    18    13   ar
    41     5     1    1
    42    42    33   ar
    43     8    11    1
    44    29    30    1
    45    29    31    1
@<TRIPOS>MOLECULE
*****
 43 45 0 0 0
SMALL
GASTEIGER

@<TRIPOS>ATOM
      1 C         140.3949  143.2146  160.5411 C.3     1  UNL1        0.1518
      2 C         140.1303  143.4858  159.0898 C.3     1  UNL1        0.0310
      3 C         141.4515  143.6724  158.4046 C.3     1  UNL1        0.0237
      4 C         142.5328  143.5165  159.4326 C.3     1  UNL1        0.0939
      5 N         141.8797  143.2336  160.7530 N.am    1  UNL1       -0.2730
      6 C         142.5873  143.0091  162.0564 C.2     1  UNL1        0.2273
      7 O         141.7968  142.7352  163.3015 O.2     1  UNL1       -0.2748
      8 N         139.1791  141.5917  162.1654 N.am    1  UNL1       -0.2991
      9 C         139.3569  142.9678  161.5955 C.2     1  UNL1        0.2408
     10 O         138.4967  144.0971  162.0800 O.2     1  UNL1       -0.2733
     11 H         139.7437  140.8505  161.8473 H       1  UNL1        0.1498
     12 C         138.1412  141.3448  163.2197 C.3     1  UNL1        0.1164
     13 C         139.3891  140.0687  167.3505 C.ar    1  UNL1        0.1389
     14 C         139.8957  141.3598  166.7793 C.ar    1  UNL1        0.0366
     15 C         139.4797  141.7852  165.4024 C.ar    1  UNL1        0.0005
     16 C         138.5572  140.9194  164.5966 C.ar    1  UNL1       -0.0024
     17 C         138.0506  139.6283  165.1678 C.ar    1  UNL1        0.0005
     18 C         138.4666  139.2029  166.5448 C.ar    1  UNL1        0.0366
     19 O         139.8051  139.6433  168.7275 O.3     1  UNL1       -0.4736
     20 C         141.0450  140.2167  169.3471 C.3     1  UNL1        0.2017
     21 C         142.1711  141.9263  170.9468 C.3     1  UNL1        0.0041
     22 C         140.9516  141.4241  170.2322 C.3     1  UNL1        0.0456
     23 C         139.6388  142.1294  170.4027 C.3     1  UNL1        0.0041
     24 C         142.3783  139.5827  169.0816 C.2     1  UNL1        0.0900
     25 O         142.9086  138.5334  170.0133 O.co2   1  UNL1       -0.5455
     26 O         143.1812  139.9979  167.8846 O.co2   1  UNL1       -0.5455
     27 C         144.0853  143.0584  162.1149 C.3     1  UNL1        0.1010
     28 C         144.8671  141.8067  162.3835 C.3     1  UNL1        0.0645
     29 N         146.1330  141.8708  163.1857 N.3     1  UNL1       -0.3215
     30 H         146.3097  142.8356  163.4656 H       1  UNL1        0.1188
     31 H         146.9115  141.5329  162.6199 H       1  UNL1        0.1188
     32 C         144.3831  140.4910  161.8499 C.3     1  UNL1        0.0470
     33 C         143.4188  139.6663  162.6499 C.ar    1  UNL1        0.0387
     34 C         143.8415  139.0856  163.9669 C.ar    1  UNL1        0.1680
     35 F         145.2282  139.3297  164.4837 F       1  UNL1       -0.2020
     36 C         142.8772  138.2609  164.7669 C.ar    1  UNL1        0.1967
     37 F         143.2998  137.6802  166.0838 F       1  UNL1       -0.1993
     38 C         141.4904  138.0168  164.2501 C.ar    1  UNL1        0.1991
     39 F         140.5261  137.1920  165.0501 F       1  UNL1       -0.1993
     40 C         141.0678  138.5974  162.9332 C.ar    1  UNL1        0.1967
     41 F         139.6810  138.3534  162.4163 F       1  UNL1       -0.1993
     42 C         142.0320  139.4222  162.1330 C.ar    1  UNL1        0.1680
     43 F         141.6094  140.0029  160.8161 F       1  UNL1       -0.2020
@<TRIPOS>UNITY_ATOM_ATTR
25 1
charge -1
@<TRIPOS>BOND
     1    21    22    1
     2    22    23    1
     3    22    20    1
     4    20    19    1
     5    19    13    1
     6    13    14   ar
     7    14    15   ar
     8    15    16   ar
     9    16    12    1
    10    12     8    1
    11     8     9   am
    12     9    10    2
    13     1     9    1
    14     1     2    1
    15     2     3    1
    16     3     4    1
    17     4     5    1
    18     5     6   am
    19     6     7    2
    20     6    27    1
    21    27    28    1
    22    28    29    1
    23    28    32    1
    24    32    33    1
    25    33    34   ar
    26    34    35    1
    27    34    36   ar
    28    36    37    1
    29    36    38   ar
    30    38    39    1
    31    38    40   ar
    32    40    41    1
    33    40    42   ar
    34    42    43    1
    35    16    17   ar
    36    17    18   ar
    37    20    24    1
    38    24    25   ar
    39    24    26   ar
    40    18    13   ar
    41     5     1    1
    42    42    33   ar
    43     8    11    1
    44    29    30    1
    45    29    31    1
@<TRIPOS>MOLECULE
*****
 43 45 0 0 0
SMALL
GASTEIGER

@<TRIPOS>ATOM
      1 C         140.7140  140.8237  160.5808 C.3     1  UNL1        0.1518
      2 C         141.2955  140.9585  159.2046 C.3     1  UNL1        0.0310
      3 C         140.8347  142.2664  158.6328 C.3     1  UNL1        0.0237
      4 C         139.9684  142.9400  159.6555 C.3     1  UNL1        0.0939
      5 N         139.8939  142.0483  160.8594 N.am    1  UNL1       -0.2730
      6 C         139.1327  142.3316  162.1205 C.2     1  UNL1        0.2273
      7 O         139.1513  141.3404  163.2464 O.2     1  UNL1       -0.2748
      8 N         141.8185  139.8135  162.7044 N.am    1  UNL1       -0.2991
      9 C         140.9171  139.6673  161.5144 C.2     1  UNL1        0.2408
     10 O         140.2188  138.3648  161.2579 O.2     1  UNL1       -0.2733
     11 H         142.2768  140.6684  162.8727 H       1  UNL1        0.1498
     12 C         142.0216  138.6571  163.6379 C.3     1  UNL1        0.1164
     13 C         142.2005  139.3559  168.0797 C.ar    1  UNL1        0.1389
     14 C         143.3328  138.6607  167.3837 C.ar    1  UNL1        0.0366
     15 C         143.2731  138.4278  165.9031 C.ar    1  UNL1        0.0005
     16 C         142.0812  138.8901  165.1185 C.ar    1  UNL1       -0.0024
     17 C         140.9489  139.5853  165.8146 C.ar    1  UNL1        0.0005
     18 C         141.0085  139.8182  167.2952 C.ar    1  UNL1        0.0366
     19 O         142.2601  139.5888  169.5603 O.3     1  UNL1       -0.4736
     20 C         141.7077  140.8558  170.1431 C.3     1  UNL1        0.2017
     21 C         141.3308  143.3075  169.3703 C.3     1  UNL1        0.0041
     22 C         142.2613  142.1823  169.7142 C.3     1  UNL1        0.0456
     23 C         143.7452  142.3837  169.6291 C.3     1  UNL1        0.0041
     24 C         140.6018  140.7963  171.1548 C.2     1  UNL1        0.0900
     25 O         139.6113  139.6705  171.1179 O.co2   1  UNL1       -0.5455
     26 O         140.4864  141.8627  172.2034 O.co2   1  UNL1       -0.5455
     27 C         138.3531  143.6058  162.2559 C.3     1  UNL1        0.1010
     28 C         139.0621  144.8888  162.5737 C.3     1  UNL1        0.0645
     29 N         138.8718  146.0887  161.6939 N.3     1  UNL1       -0.3215
     30 H         138.2333  145.8550  160.9336 H       1  UNL1        0.1188
     31 H         139.7718  146.3728  161.3069 H       1  UNL1        0.1188
     32 C         139.9615  144.9720  163.7713 C.3     1  UNL1        0.0470
     33 C         141.2643  144.2286  163.7840 C.ar    1  UNL1        0.0387
     34 C         142.1792  144.2984  162.5973 C.ar    1  UNL1        0.1680
     35 F         141.7913  145.1115  161.3980 F       1  UNL1       -0.2020
     36 C         143.4819  143.5549  162.6099 C.ar    1  UNL1        0.1967
     37 F         144.3968  143.6246  161.4233 F       1  UNL1       -0.1993
     38 C         143.8698  142.7417  163.8092 C.ar    1  UNL1        0.1991
     39 F         145.1725  141.9982  163.8219 F       1  UNL1       -0.1993
     40 C         142.9549  142.6719  164.9959 C.ar    1  UNL1        0.1967
     41 F         143.3427  141.8588  166.1952 F       1  UNL1       -0.1993
     42 C         141.6521  143.4154  164.9833 C.ar    1  UNL1        0.1680
     43 F         140.7372  143.3457  166.1699 F       1  UNL1       -0.2020
@<TRIPOS>UNITY_ATOM_ATTR
25 1
charge -1
@<TRIPOS>BOND
     1    21    22    1
     2    22    23    1
     3    22    20    1
     4    20    19    1
     5    19    13    1
     6    13    14   ar
     7    14    15   ar
     8    15    16   ar
     9    16    12    1
    10    12     8    1
    11     8     9   am
    12     9    10    2
    13     1     9    1
    14     1     2    1
    15     2     3    1
    16     3     4    1
    17     4     5    1
    18     5     6   am
    19     6     7    2
    20     6    27    1
    21    27    28    1
    22    28    29    1
    23    28    32    1
    24    32    33    1
    25    33    34   ar
    26    34    35    1
    27    34    36   ar
    28    36    37    1
    29    36    38   ar
    30    38    39    1
    31    38    40   ar
    32    40    41    1
    33    40    42   ar
    34    42    43    1
    35    16    17   ar
    36    17    18   ar
    37    20    24    1
    38    24    25   ar
    39    24    26   ar
    40    18    13   ar
    41     5     1    1
    42    42    33   ar
    43     8    11    1
    44    29    30    1
    45    29    31    1
