@<TRIPOS>MOLECULE
*****
 36 41 0 0 0
SMALL
GASTEIGER

@<TRIPOS>ATOM
      1 C         140.0430  144.6930  158.5859 C.3     1  UNL1        0.0666
      2 C         140.8794  145.3135  159.6655 C.3     1  UNL1        0.0294
      3 C         140.2389  145.7646  160.9446 C.3     1  UNL1        0.0730
      4 C         142.5088  140.4381  170.5229 C.3     1  UNL1        0.0942
      5 C         142.2046  141.1520  169.2392 C.2     1  UNL1        0.1968
      6 N         143.1674  141.3922  168.1144 N.2     1  UNL1       -0.2350
      7 C         142.4421  142.1397  167.0350 C.3     1  UNL1        0.1717
      8 C         142.8841  142.6471  165.6944 C.2     1  UNL1       -0.0028
      9 C         141.9151  143.3761  164.8116 C.2     1  UNL1       -0.0272
     10 C         142.5571  143.7960  163.5225 C.3     1  UNL1        0.0431
     11 C         141.9464  144.5413  162.3729 C.3     1  UNL1        0.0768
     12 N         140.5431  145.0507  162.2283 N.3     1  UNL1       -0.2720
     13 C         139.4037  144.9408  163.1977 C.3     1  UNL1        0.0768
     14 C         139.3862  144.2941  164.5510 C.3     1  UNL1        0.0431
     15 C         140.5040  143.5978  165.2692 C.2     1  UNL1       -0.0257
     16 C         140.0618  143.0904  166.6098 C.2     1  UNL1        0.0144
     17 C         141.0309  142.3613  167.4927 C.3     1  UNL1        0.2153
     18 O         140.8841  141.7509  168.8549 O.2     1  UNL1       -0.4604
     19 S         139.8276  143.2088  158.5638 S.3     1  UNL1       -0.0756
     20 C         140.2911  142.3664  159.7151 C.ar    1  UNL1        0.1932
     21 N         141.6274  141.6955  159.8348 N.ar    1  UNL1       -0.1221
     22 N         141.6620  140.9615  161.1425 N.ar    1  UNL1       -0.1282
     23 C         140.3471  141.1787  161.8309 C.ar    1  UNL1        0.1669
     24 N         139.4999  142.0470  160.9487 N.ar    1  UNL1       -0.2884
     25 C         138.1061  142.5140  161.2477 C.3     1  UNL1        0.1340
     26 C         139.9493  140.6249  163.1669 C.ar    1  UNL1        0.0374
     27 C         138.5301  140.7467  163.6369 C.ar    1  UNL1        0.0031
     28 C         138.1323  140.1929  164.9730 C.ar    1  UNL1        0.0016
     29 C         139.1537  139.5173  165.8391 C.ar    1  UNL1        0.0191
     30 C         140.5729  139.3955  165.3691 C.ar    1  UNL1        0.0810
     31 N         141.5944  138.7199  166.2352 N.ar    1  UNL1       -0.2497
     32 C         143.0137  138.5980  165.7653 C.ar    1  UNL1        0.0593
     33 C         144.0352  137.9224  166.6314 C.3     1  UNL1        0.0521
     34 C         143.4115  139.1519  164.4292 C.ar    1  UNL1        0.0147
     35 C         142.3900  139.8275  163.5631 C.ar    1  UNL1        0.0028
     36 C         140.9707  139.9493  164.0331 C.ar    1  UNL1        0.0206
@<TRIPOS>BOND
     1     4     5    1
     2     5     6    2
     3     6     7    1
     4     7     8    1
     5     8     9    2
     6     9    10    1
     7    10    11    1
     8    11    12    1
     9    12     3    1
    10     3     2    1
    11     2     1    1
    12     1    19    1
    13    19    20    1
    14    20    21   ar
    15    21    22   ar
    16    22    23   ar
    17    23    26    1
    18    26    27   ar
    19    27    28   ar
    20    28    29   ar
    21    29    30   ar
    22    30    31   ar
    23    31    32   ar
    24    32    33    1
    25    32    34   ar
    26    34    35   ar
    27    35    36   ar
    28    23    24   ar
    29    24    25    1
    30    12    13    1
    31    13    14    1
    32    14    15    1
    33    15    16    2
    34    16    17    1
    35    17    18    1
    36    18     5    1
    37    17     7    1
    38    15     9    1
    39    24    20   ar
    40    36    26   ar
    41    36    30   ar
@<TRIPOS>MOLECULE
*****
 36 41 0 0 0
SMALL
GASTEIGER

@<TRIPOS>ATOM
      1 C         140.2881  144.7825  158.1109 C.3     1  UNL1        0.0666
      2 C         141.1755  145.0012  159.3004 C.3     1  UNL1        0.0294
      3 C         140.5983  145.5317  160.5793 C.3     1  UNL1        0.0730
      4 C         141.4233  139.5442  169.9994 C.3     1  UNL1        0.0942
      5 C         141.3127  140.3467  168.7369 C.2     1  UNL1        0.1968
      6 N         142.1037  140.1283  167.4813 N.2     1  UNL1       -0.2350
      7 C         141.6716  141.1550  166.4767 C.3     1  UNL1        0.1717
      8 C         142.1048  141.4235  165.0659 C.2     1  UNL1       -0.0028
      9 C         141.4800  142.5449  164.2901 C.2     1  UNL1       -0.0272
     10 C         142.0533  142.6404  162.9072 C.3     1  UNL1        0.0431
     11 C         141.7100  143.6126  161.8176 C.3     1  UNL1        0.0768
     12 N         140.7089  144.7292  161.8418 N.3     1  UNL1       -0.2720
     13 C         139.8035  145.1496  162.9615 C.3     1  UNL1        0.0768
     14 C         139.6759  144.5571  164.3336 C.3     1  UNL1        0.0431
     15 C         140.4220  143.3978  164.9248 C.2     1  UNL1       -0.0257
     16 C         139.9887  143.1294  166.3356 C.2     1  UNL1        0.0144
     17 C         140.6135  142.0080  167.1115 C.3     1  UNL1        0.2153
     18 O         140.3917  141.5084  168.5084 O.2     1  UNL1       -0.4604
     19 S         139.5994  143.4636  157.9215 S.3     1  UNL1       -0.0756
     20 C         139.3174  142.5877  159.1061 C.ar    1  UNL1        0.1932
     21 N         138.1023  142.6551  159.9830 N.ar    1  UNL1       -0.1221
     22 N         138.2349  141.5998  161.0408 N.ar    1  UNL1       -0.1282
     23 C         139.5319  140.8802  160.8175 C.ar    1  UNL1        0.1669
     24 N         140.2010  141.4908  159.6219 N.ar    1  UNL1       -0.2884
     25 C         141.5218  141.0771  159.0435 C.3     1  UNL1        0.1340
     26 C         140.0662  139.7487  161.6447 C.ar    1  UNL1        0.0374
     27 C         141.0918  138.8178  161.0690 C.ar    1  UNL1        0.0031
     28 C         141.6261  137.6863  161.8962 C.ar    1  UNL1        0.0016
     29 C         141.1348  137.4857  163.2991 C.ar    1  UNL1        0.0191
     30 C         140.1092  138.4166  163.8749 C.ar    1  UNL1        0.0810
     31 N         139.6178  138.2160  165.2779 N.ar    1  UNL1       -0.2497
     32 C         138.5922  139.1469  165.8537 C.ar    1  UNL1        0.0593
     33 C         138.1008  138.9464  167.2567 C.3     1  UNL1        0.0521
     34 C         138.0580  140.2785  165.0264 C.ar    1  UNL1        0.0147
     35 C         138.5493  140.4790  163.6234 C.ar    1  UNL1        0.0028
     36 C         139.5749  139.5481  163.0477 C.ar    1  UNL1        0.0206
@<TRIPOS>BOND
     1     4     5    1
     2     5     6    2
     3     6     7    1
     4     7     8    1
     5     8     9    2
     6     9    10    1
     7    10    11    1
     8    11    12    1
     9    12     3    1
    10     3     2    1
    11     2     1    1
    12     1    19    1
    13    19    20    1
    14    20    21   ar
    15    21    22   ar
    16    22    23   ar
    17    23    26    1
    18    26    27   ar
    19    27    28   ar
    20    28    29   ar
    21    29    30   ar
    22    30    31   ar
    23    31    32   ar
    24    32    33    1
    25    32    34   ar
    26    34    35   ar
    27    35    36   ar
    28    23    24   ar
    29    24    25    1
    30    12    13    1
    31    13    14    1
    32    14    15    1
    33    15    16    2
    34    16    17    1
    35    17    18    1
    36    18     5    1
    37    17     7    1
    38    15     9    1
    39    24    20   ar
    40    36    26   ar
    41    36    30   ar
@<TRIPOS>MOLECULE
*****
 36 41 0 0 0
SMALL
GASTEIGER

@<TRIPOS>ATOM
      1 C         141.3161  145.3442  158.9614 C.3     1  UNL1        0.0666
      2 C         140.0975  145.3848  159.8352 C.3     1  UNL1        0.0294
      3 C         140.1904  145.9373  161.2266 C.3     1  UNL1        0.0730
      4 C         142.1782  139.0838  169.8490 C.3     1  UNL1        0.0942
      5 C         141.9118  140.0023  168.6934 C.2     1  UNL1        0.1968
      6 N         140.6179  140.1248  167.9446 N.2     1  UNL1       -0.2350
      7 C         140.7989  141.1578  166.8722 C.3     1  UNL1        0.1717
      8 C         139.8653  141.6953  165.8284 C.2     1  UNL1       -0.0028
      9 C         140.3375  142.7487  164.8707 C.2     1  UNL1       -0.0272
     10 C         139.2526  143.1452  163.9136 C.3     1  UNL1        0.0431
     11 C         139.3058  144.1555  162.8061 C.3     1  UNL1        0.0768
     12 N         140.4568  145.0188  162.3822 N.3     1  UNL1       -0.2720
     13 C         141.8390  145.0852  162.9610 C.3     1  UNL1        0.0768
     14 C         142.4116  144.3045  164.1068 C.3     1  UNL1        0.0431
     15 C         141.7433  143.2647  164.9566 C.2     1  UNL1       -0.0257
     16 C         142.6770  142.7272  166.0004 C.2     1  UNL1        0.0144
     17 C         142.2048  141.6737  166.9582 C.3     1  UNL1        0.2153
     18 O         142.8926  140.9596  168.0837 O.2     1  UNL1       -0.4604
     19 S         142.0153  144.0413  158.7096 S.3     1  UNL1       -0.0756
     20 C         142.2294  143.0749  159.8367 C.ar    1  UNL1        0.1932
     21 N         143.5052  142.8812  160.6015 N.ar    1  UNL1       -0.1221
     22 N         143.2697  141.8192  161.6343 N.ar    1  UNL1       -0.1282
     23 C         141.8484  141.3567  161.5078 C.ar    1  UNL1        0.1669
     24 N         141.2055  142.1328  160.3968 N.ar    1  UNL1       -0.2884
     25 C         139.7876  141.9914  159.9282 C.3     1  UNL1        0.1340
     26 C         141.1863  140.3030  162.3453 C.ar    1  UNL1        0.0374
     27 C         139.7692  139.9008  162.0623 C.ar    1  UNL1        0.0031
     28 C         139.1071  138.8472  162.8997 C.ar    1  UNL1        0.0016
     29 C         139.8619  138.1956  164.0203 C.ar    1  UNL1        0.0191
     30 C         141.2790  138.5978  164.3033 C.ar    1  UNL1        0.0810
     31 N         142.0340  137.9464  165.4238 N.ar    1  UNL1       -0.2497
     32 C         143.4511  138.3485  165.7069 C.ar    1  UNL1        0.0593
     33 C         144.2061  137.6970  166.8275 C.3     1  UNL1        0.0521
     34 C         144.1132  139.4022  164.8694 C.ar    1  UNL1        0.0147
     35 C         143.3583  140.0537  163.7489 C.ar    1  UNL1        0.0028
     36 C         141.9412  139.6515  163.4658 C.ar    1  UNL1        0.0206
@<TRIPOS>BOND
     1     4     5    1
     2     5     6    2
     3     6     7    1
     4     7     8    1
     5     8     9    2
     6     9    10    1
     7    10    11    1
     8    11    12    1
     9    12     3    1
    10     3     2    1
    11     2     1    1
    12     1    19    1
    13    19    20    1
    14    20    21   ar
    15    21    22   ar
    16    22    23   ar
    17    23    26    1
    18    26    27   ar
    19    27    28   ar
    20    28    29   ar
    21    29    30   ar
    22    30    31   ar
    23    31    32   ar
    24    32    33    1
    25    32    34   ar
    26    34    35   ar
    27    35    36   ar
    28    23    24   ar
    29    24    25    1
    30    12    13    1
    31    13    14    1
    32    14    15    1
    33    15    16    2
    34    16    17    1
    35    17    18    1
    36    18     5    1
    37    17     7    1
    38    15     9    1
    39    24    20   ar
    40    36    26   ar
    41    36    30   ar
@<TRIPOS>MOLECULE
*****
 36 41 0 0 0
SMALL
GASTEIGER

@<TRIPOS>ATOM
      1 C         141.6973  139.3556  157.5622 C.3     1  UNL1        0.0666
      2 C         140.9221  138.4551  158.4778 C.3     1  UNL1        0.0294
      3 C         139.6508  138.9412  159.1084 C.3     1  UNL1        0.0730
      4 C         139.1713  140.6140  170.1646 C.3     1  UNL1        0.0942
      5 C         139.2356  140.3898  168.6829 C.2     1  UNL1        0.1968
      6 N         139.6998  141.3840  167.6601 N.2     1  UNL1       -0.2350
      7 C         139.5980  140.7407  166.3088 C.3     1  UNL1        0.1717
      8 C         139.9172  141.2424  164.9317 C.2     1  UNL1       -0.0028
      9 C         139.7093  140.3524  163.7424 C.2     1  UNL1       -0.0272
     10 C         140.0882  141.0449  162.4668 C.3     1  UNL1        0.0431
     11 C         140.0335  140.5166  161.0639 C.3     1  UNL1        0.0768
     12 N         139.5866  139.1655  160.5902 N.3     1  UNL1       -0.2720
     13 C         139.0838  138.0087  161.4022 C.3     1  UNL1        0.0768
     14 C         138.9039  137.9176  162.8886 C.3     1  UNL1        0.0431
     15 C         139.1823  138.9607  163.9300 C.2     1  UNL1       -0.0257
     16 C         138.8631  138.4589  165.3071 C.2     1  UNL1        0.0144
     17 C         139.0710  139.3490  166.4965 C.3     1  UNL1        0.2153
     18 O         138.8470  139.1321  167.9637 O.2     1  UNL1       -0.4604
     19 S         143.0630  139.8323  157.9588 S.3     1  UNL1       -0.0756
     20 C         143.4505  139.8773  159.4072 C.ar    1  UNL1        0.1932
     21 N         144.0852  138.7628  160.1851 N.ar    1  UNL1       -0.1221
     22 N         144.2983  139.2413  161.5906 N.ar    1  UNL1       -0.1282
     23 C         143.7952  140.6516  161.6814 C.ar    1  UNL1        0.1669
     24 N         143.2713  141.0446  160.3319 N.ar    1  UNL1       -0.2884
     25 C         142.6732  142.3720  159.9708 C.3     1  UNL1        0.1340
     26 C         143.8130  141.5168  162.9065 C.ar    1  UNL1        0.0374
     27 C         144.1343  142.9773  162.7887 C.ar    1  UNL1        0.0031
     28 C         144.1521  143.8426  164.0138 C.ar    1  UNL1        0.0016
     29 C         143.8487  143.2475  165.3568 C.ar    1  UNL1        0.0191
     30 C         143.5274  141.7870  165.4747 C.ar    1  UNL1        0.0810
     31 N         143.2240  141.1918  166.8177 N.ar    1  UNL1       -0.2497
     32 C         142.9027  139.7314  166.9356 C.ar    1  UNL1        0.0593
     33 C         142.5992  139.1362  168.2786 C.3     1  UNL1        0.0521
     34 C         142.8849  138.8661  165.7104 C.ar    1  UNL1        0.0147
     35 C         143.1884  139.4613  164.3674 C.ar    1  UNL1        0.0028
     36 C         143.5096  140.9217  164.2496 C.ar    1  UNL1        0.0206
@<TRIPOS>BOND
     1     4     5    1
     2     5     6    2
     3     6     7    1
     4     7     8    1
     5     8     9    2
     6     9    10    1
     7    10    11    1
     8    11    12    1
     9    12     3    1
    10     3     2    1
    11     2     1    1
    12     1    19    1
    13    19    20    1
    14    20    21   ar
    15    21    22   ar
    16    22    23   ar
    17    23    26    1
    18    26    27   ar
    19    27    28   ar
    20    28    29   ar
    21    29    30   ar
    22    30    31   ar
    23    31    32   ar
    24    32    33    1
    25    32    34   ar
    26    34    35   ar
    27    35    36   ar
    28    23    24   ar
    29    24    25    1
    30    12    13    1
    31    13    14    1
    32    14    15    1
    33    15    16    2
    34    16    17    1
    35    17    18    1
    36    18     5    1
    37    17     7    1
    38    15     9    1
    39    24    20   ar
    40    36    26   ar
    41    36    30   ar
@<TRIPOS>MOLECULE
*****
 36 41 0 0 0
SMALL
GASTEIGER

@<TRIPOS>ATOM
      1 C         142.9462  141.5971  156.6639 C.3     1  UNL1        0.0666
      2 C         142.8348  142.4898  157.8642 C.3     1  UNL1        0.0294
      3 C         143.9532  142.5478  158.8622 C.3     1  UNL1        0.0730
      4 C         141.6950  142.2664  169.8207 C.3     1  UNL1        0.0942
      5 C         141.9977  142.3041  168.3521 C.2     1  UNL1        0.1968
      6 N         140.9940  142.2013  167.2421 N.2     1  UNL1       -0.2350
      7 C         141.7331  142.2849  165.9395 C.3     1  UNL1        0.1717
      8 C         141.2649  142.2404  164.5151 C.2     1  UNL1       -0.0028
      9 C         142.2574  142.3503  163.3958 C.2     1  UNL1       -0.0272
     10 C         141.5833  142.2834  162.0573 C.3     1  UNL1        0.0431
     11 C         142.2034  142.3546  160.6933 C.3     1  UNL1        0.0768
     12 N         143.6505  142.5101  160.3309 N.3     1  UNL1       -0.2720
     13 C         144.8351  142.6329  161.2428 C.3     1  UNL1        0.0768
     14 C         144.8651  142.6305  162.7425 C.3     1  UNL1        0.0431
     15 C         143.7178  142.5047  163.7006 C.2     1  UNL1       -0.0257
     16 C         144.1860  142.5493  165.1250 C.2     1  UNL1        0.0144
     17 C         143.1936  142.4394  166.2445 C.3     1  UNL1        0.2153
     18 O         143.3572  142.4513  167.7354 O.2     1  UNL1       -0.4604
     19 S         142.3170  140.2357  156.6808 S.3     1  UNL1       -0.0756
     20 C         142.2390  139.4614  157.9632 C.ar    1  UNL1        0.1932
     21 N         143.2389  138.4533  158.4466 N.ar    1  UNL1       -0.1221
     22 N         142.7653  137.9281  159.7695 N.ar    1  UNL1       -0.1282
     23 C         141.4726  138.6117  160.1035 C.ar    1  UNL1        0.1669
     24 N         141.1473  139.5593  158.9872 N.ar    1  UNL1       -0.2884
     25 C         139.9419  140.4487  158.9087 C.3     1  UNL1        0.1340
     26 C         140.6497  138.3871  161.3374 C.ar    1  UNL1        0.0374
     27 C         139.1895  138.0654  161.2167 C.ar    1  UNL1        0.0031
     28 C         138.3666  137.8408  162.4505 C.ar    1  UNL1        0.0016
     29 C         139.0037  137.9378  163.8050 C.ar    1  UNL1        0.0191
     30 C         140.4638  138.2595  163.9256 C.ar    1  UNL1        0.0810
     31 N         141.1010  138.3565  165.2801 N.ar    1  UNL1       -0.2497
     32 C         142.5612  138.6782  165.4008 C.ar    1  UNL1        0.0593
     33 C         143.1984  138.7752  166.7552 C.3     1  UNL1        0.0521
     34 C         143.3841  138.9028  164.1669 C.ar    1  UNL1        0.0147
     35 C         142.7469  138.8058  162.8125 C.ar    1  UNL1        0.0028
     36 C         141.2868  138.4841  162.6918 C.ar    1  UNL1        0.0206
@<TRIPOS>BOND
     1     4     5    1
     2     5     6    2
     3     6     7    1
     4     7     8    1
     5     8     9    2
     6     9    10    1
     7    10    11    1
     8    11    12    1
     9    12     3    1
    10     3     2    1
    11     2     1    1
    12     1    19    1
    13    19    20    1
    14    20    21   ar
    15    21    22   ar
    16    22    23   ar
    17    23    26    1
    18    26    27   ar
    19    27    28   ar
    20    28    29   ar
    21    29    30   ar
    22    30    31   ar
    23    31    32   ar
    24    32    33    1
    25    32    34   ar
    26    34    35   ar
    27    35    36   ar
    28    23    24   ar
    29    24    25    1
    30    12    13    1
    31    13    14    1
    32    14    15    1
    33    15    16    2
    34    16    17    1
    35    17    18    1
    36    18     5    1
    37    17     7    1
    38    15     9    1
    39    24    20   ar
    40    36    26   ar
    41    36    30   ar
@<TRIPOS>MOLECULE
*****
 36 41 0 0 0
SMALL
GASTEIGER

@<TRIPOS>ATOM
      1 C         142.8550  139.2144  157.9766 C.3     1  UNL1        0.0666
      2 C         142.9582  138.5602  159.3225 C.3     1  UNL1        0.0294
      3 C         144.0386  138.9745  160.2770 C.3     1  UNL1        0.0730
      4 C         141.4749  141.5127  170.8719 C.3     1  UNL1        0.0942
      5 C         141.8185  141.1725  169.4520 C.2     1  UNL1        0.1968
      6 N         142.6179  142.0234  168.5102 N.2     1  UNL1       -0.2350
      7 C         142.7165  141.2985  167.2007 C.3     1  UNL1        0.1717
      8 C         143.3833  141.6533  165.9047 C.2     1  UNL1       -0.0028
      9 C         143.3116  140.7093  164.7413 C.2     1  UNL1       -0.0272
     10 C         144.0408  141.2532  163.5485 C.3     1  UNL1        0.0431
     11 C         144.2114  140.6324  162.1936 C.3     1  UNL1        0.0768
     12 N         143.6951  139.3147  161.6970 N.3     1  UNL1       -0.2720
     13 C         142.8805  138.2920  162.4323 C.3     1  UNL1        0.0768
     14 C         142.3812  138.3347  163.8462 C.3     1  UNL1        0.0431
     15 C         142.5731  139.4105  164.8737 C.2     1  UNL1       -0.0257
     16 C         141.9062  139.0556  166.1697 C.2     1  UNL1        0.0144
     17 C         141.9779  139.9997  167.3332 C.3     1  UNL1        0.2153
     18 O         141.4229  139.9218  168.7245 O.2     1  UNL1       -0.4604
     19 S         141.5373  139.7524  157.5033 S.3     1  UNL1       -0.0756
     20 C         140.4017  139.9125  158.4701 C.ar    1  UNL1        0.1932
     21 N         139.0957  139.1761  158.4259 N.ar    1  UNL1       -0.1221
     22 N         138.2595  139.6456  159.5793 N.ar    1  UNL1       -0.1282
     23 C         139.0488  140.6722  160.3364 C.ar    1  UNL1        0.1669
     24 N         140.3728  140.8372  159.6509 N.ar    1  UNL1       -0.2884
     25 C         141.4743  141.7640  160.0722 C.3     1  UNL1        0.1340
     26 C         138.5940  141.4051  161.5636 C.ar    1  UNL1        0.0374
     27 C         138.2451  142.8616  161.4811 C.ar    1  UNL1        0.0031
     28 C         137.7903  143.5946  162.7083 C.ar    1  UNL1        0.0016
     29 C         137.6843  142.8710  164.0180 C.ar    1  UNL1        0.0191
     30 C         138.0333  141.4145  164.1004 C.ar    1  UNL1        0.0810
     31 N         137.9274  140.6909  165.4100 N.ar    1  UNL1       -0.2497
     32 C         138.2763  139.2344  165.4926 C.ar    1  UNL1        0.0593
     33 C         138.1704  138.5108  166.8022 C.3     1  UNL1        0.0521
     34 C         138.7311  138.5015  164.2653 C.ar    1  UNL1        0.0147
     35 C         138.8370  139.2251  162.9557 C.ar    1  UNL1        0.0028
     36 C         138.4881  140.6816  162.8732 C.ar    1  UNL1        0.0206
@<TRIPOS>BOND
     1     4     5    1
     2     5     6    2
     3     6     7    1
     4     7     8    1
     5     8     9    2
     6     9    10    1
     7    10    11    1
     8    11    12    1
     9    12     3    1
    10     3     2    1
    11     2     1    1
    12     1    19    1
    13    19    20    1
    14    20    21   ar
    15    21    22   ar
    16    22    23   ar
    17    23    26    1
    18    26    27   ar
    19    27    28   ar
    20    28    29   ar
    21    29    30   ar
    22    30    31   ar
    23    31    32   ar
    24    32    33    1
    25    32    34   ar
    26    34    35   ar
    27    35    36   ar
    28    23    24   ar
    29    24    25    1
    30    12    13    1
    31    13    14    1
    32    14    15    1
    33    15    16    2
    34    16    17    1
    35    17    18    1
    36    18     5    1
    37    17     7    1
    38    15     9    1
    39    24    20   ar
    40    36    26   ar
    41    36    30   ar
@<TRIPOS>MOLECULE
*****
 36 41 0 0 0
SMALL
GASTEIGER

@<TRIPOS>ATOM
      1 C         143.5209  142.9586  157.7812 C.3     1  UNL1        0.0666
      2 C         144.4438  142.0995  158.5938 C.3     1  UNL1        0.0294
      3 C         145.0957  142.6549  159.8253 C.3     1  UNL1        0.0730
      4 C         141.4129  139.6359  169.9540 C.3     1  UNL1        0.0942
      5 C         141.9065  140.0405  168.5965 C.2     1  UNL1        0.1968
      6 N         142.4151  141.3982  168.2119 N.2     1  UNL1       -0.2350
      7 C         142.8011  141.3553  166.7630 C.3     1  UNL1        0.1717
      8 C         143.3636  142.3978  165.8428 C.2     1  UNL1       -0.0028
      9 C         143.6560  142.0560  164.4118 C.2     1  UNL1       -0.0272
     10 C         144.2103  143.2355  163.6690 C.3     1  UNL1        0.0431
     11 C         144.6314  143.3219  162.2318 C.3     1  UNL1        0.0768
     12 N         144.6022  142.2503  161.1828 N.3     1  UNL1       -0.2720
     13 C         144.1447  140.8276  161.3115 C.3     1  UNL1        0.0768
     14 C         143.6034  140.1251  162.5212 C.3     1  UNL1        0.0431
     15 C         143.3859  140.6719  163.9010 C.2     1  UNL1       -0.0257
     16 C         142.8234  139.6293  164.8212 C.2     1  UNL1        0.0144
     17 C         142.5310  139.9710  166.2522 C.3     1  UNL1        0.2153
     18 O         141.9781  139.1585  167.3853 O.2     1  UNL1       -0.4604
     19 S         142.0357  142.7871  157.9022 S.3     1  UNL1       -0.0756
     20 C         141.4431  142.2573  159.1743 C.ar    1  UNL1        0.1932
     21 N         140.8985  140.8756  159.3847 N.ar    1  UNL1       -0.1221
     22 N         140.4098  140.7805  160.7997 N.ar    1  UNL1       -0.1282
     23 C         140.6524  142.1034  161.4637 C.ar    1  UNL1        0.1669
     24 N         141.2910  143.0162  160.4592 N.ar    1  UNL1       -0.2884
     25 C         141.7048  144.4381  160.6977 C.3     1  UNL1        0.1340
     26 C         140.3155  142.4524  162.8832 C.ar    1  UNL1        0.0374
     27 C         140.5434  143.8467  163.3870 C.ar    1  UNL1        0.0031
     28 C         140.2065  144.1957  164.8064 C.ar    1  UNL1        0.0016
     29 C         139.6418  143.1504  165.7220 C.ar    1  UNL1        0.0191
     30 C         139.4139  141.7560  165.2182 C.ar    1  UNL1        0.0810
     31 N         138.8492  140.7107  166.1337 N.ar    1  UNL1       -0.2497
     32 C         138.6213  139.3163  165.6299 C.ar    1  UNL1        0.0593
     33 C         138.0566  138.2709  166.5454 C.3     1  UNL1        0.0521
     34 C         138.9582  138.9674  164.2104 C.ar    1  UNL1        0.0147
     35 C         139.5229  140.0127  163.2949 C.ar    1  UNL1        0.0028
     36 C         139.7508  141.4071  163.7988 C.ar    1  UNL1        0.0206
@<TRIPOS>BOND
     1     4     5    1
     2     5     6    2
     3     6     7    1
     4     7     8    1
     5     8     9    2
     6     9    10    1
     7    10    11    1
     8    11    12    1
     9    12     3    1
    10     3     2    1
    11     2     1    1
    12     1    19    1
    13    19    20    1
    14    20    21   ar
    15    21    22   ar
    16    22    23   ar
    17    23    26    1
    18    26    27   ar
    19    27    28   ar
    20    28    29   ar
    21    29    30   ar
    22    30    31   ar
    23    31    32   ar
    24    32    33    1
    25    32    34   ar
    26    34    35   ar
    27    35    36   ar
    28    23    24   ar
    29    24    25    1
    30    12    13    1
    31    13    14    1
    32    14    15    1
    33    15    16    2
    34    16    17    1
    35    17    18    1
    36    18     5    1
    37    17     7    1
    38    15     9    1
    39    24    20   ar
    40    36    26   ar
    41    36    30   ar
@<TRIPOS>MOLECULE
*****
 36 41 0 0 0
SMALL
GASTEIGER

@<TRIPOS>ATOM
      1 C         141.0525  138.3035  158.0938 C.3     1  UNL1        0.0666
      2 C         142.1982  138.5964  159.0166 C.3     1  UNL1        0.0294
      3 C         142.5501  137.6276  160.1064 C.3     1  UNL1        0.0730
      4 C         141.5091  140.6499  170.8326 C.3     1  UNL1        0.0942
      5 C         141.6486  140.2448  169.3950 C.2     1  UNL1        0.1968
      6 N         142.9306  140.1737  168.6195 N.2     1  UNL1       -0.2350
      7 C         142.6050  139.7247  167.2258 C.3     1  UNL1        0.1717
      8 C         143.4674  139.4771  166.0237 C.2     1  UNL1       -0.0028
      9 C         142.8465  139.0232  164.7360 C.2     1  UNL1       -0.0272
     10 C         143.8805  138.8352  163.6655 C.3     1  UNL1        0.0431
     11 C         143.6864  138.3943  162.2449 C.3     1  UNL1        0.0768
     12 N         142.4106  138.0327  161.5440 N.3     1  UNL1       -0.2720
     13 C         141.0137  138.0225  162.0903 C.3     1  UNL1        0.0768
     14 C         140.5476  138.3714  163.4727 C.3     1  UNL1        0.0431
     15 C         141.3634  138.8168  164.6501 C.2     1  UNL1       -0.0257
     16 C         140.5009  139.0644  165.8522 C.2     1  UNL1        0.0144
     17 C         141.1217  139.5184  167.1400 C.3     1  UNL1        0.2153
     18 O         140.5307  139.8398  168.4806 O.2     1  UNL1       -0.4604
     19 S         139.8435  139.1914  158.0939 S.3     1  UNL1       -0.0756
     20 C         139.3331  139.7633  159.3832 C.ar    1  UNL1        0.1932
     21 N         138.3559  139.1073  160.3131 N.ar    1  UNL1       -0.1221
     22 N         138.1292  140.0302  161.4737 N.ar    1  UNL1       -0.1282
     23 C         138.9662  141.2566  161.2610 C.ar    1  UNL1        0.1669
     24 N         139.7104  141.0917  159.9690 N.ar    1  UNL1       -0.2884
     25 C         140.6642  142.0814  159.3684 C.3     1  UNL1        0.1340
     26 C         139.0453  142.4402  162.1791 C.ar    1  UNL1        0.0374
     27 C         137.8350  143.2972  162.4040 C.ar    1  UNL1        0.0031
     28 C         137.9141  144.4807  163.3221 C.ar    1  UNL1        0.0016
     29 C         139.2035  144.8074  164.0153 C.ar    1  UNL1        0.0191
     30 C         140.4138  143.9504  163.7904 C.ar    1  UNL1        0.0810
     31 N         141.7033  144.2769  164.4837 N.ar    1  UNL1       -0.2497
     32 C         142.9138  143.4200  164.2589 C.ar    1  UNL1        0.0593
     33 C         144.2032  143.7466  164.9521 C.3     1  UNL1        0.0521
     34 C         142.8346  142.2364  163.3407 C.ar    1  UNL1        0.0147
     35 C         141.5451  141.9098  162.6475 C.ar    1  UNL1        0.0028
     36 C         140.3347  142.7668  162.8724 C.ar    1  UNL1        0.0206
@<TRIPOS>BOND
     1     4     5    1
     2     5     6    2
     3     6     7    1
     4     7     8    1
     5     8     9    2
     6     9    10    1
     7    10    11    1
     8    11    12    1
     9    12     3    1
    10     3     2    1
    11     2     1    1
    12     1    19    1
    13    19    20    1
    14    20    21   ar
    15    21    22   ar
    16    22    23   ar
    17    23    26    1
    18    26    27   ar
    19    27    28   ar
    20    28    29   ar
    21    29    30   ar
    22    30    31   ar
    23    31    32   ar
    24    32    33    1
    25    32    34   ar
    26    34    35   ar
    27    35    36   ar
    28    23    24   ar
    29    24    25    1
    30    12    13    1
    31    13    14    1
    32    14    15    1
    33    15    16    2
    34    16    17    1
    35    17    18    1
    36    18     5    1
    37    17     7    1
    38    15     9    1
    39    24    20   ar
    40    36    26   ar
    41    36    30   ar
@<TRIPOS>MOLECULE
*****
 36 41 0 0 0
SMALL
GASTEIGER

@<TRIPOS>ATOM
      1 C         142.0613  139.3918  167.1452 C.3     1  UNL1        0.0666
      2 C         142.6947  140.3171  168.1416 C.3     1  UNL1        0.0294
      3 C         142.6080  141.8019  167.9470 C.3     1  UNL1        0.0730
      4 C         140.3165  145.9959  157.8264 C.3     1  UNL1        0.0942
      5 C         140.6236  145.4338  159.1827 C.2     1  UNL1        0.1968
      6 N         139.6184  145.0750  160.2367 N.2     1  UNL1       -0.2350
      7 C         140.3634  144.5513  161.4287 C.3     1  UNL1        0.1717
      8 C         139.8965  144.0469  162.7620 C.2     1  UNL1       -0.0028
      9 C         140.8954  143.5777  163.7779 C.2     1  UNL1       -0.0272
     10 C         140.2216  143.1164  165.0363 C.3     1  UNL1        0.0431
     11 C         140.8472  142.5762  166.2881 C.3     1  UNL1        0.0768
     12 N         142.3009  142.3640  166.5906 N.3     1  UNL1       -0.2720
     13 C         143.4882  142.6395  165.7163 C.3     1  UNL1        0.0768
     14 C         143.5149  143.1953  164.3233 C.3     1  UNL1        0.0431
     15 C         142.3609  143.6128  163.4607 C.2     1  UNL1       -0.0257
     16 C         142.8278  144.1172  162.1274 C.2     1  UNL1        0.0144
     17 C         141.8290  144.5864  161.1113 C.3     1  UNL1        0.2153
     18 O         141.9899  145.1318  159.7234 O.2     1  UNL1       -0.4604
     19 S         142.9151  138.6625  166.1507 S.3     1  UNL1       -0.0756
     20 C         142.3287  138.2143  164.8448 C.ar    1  UNL1        0.1932
     21 N         141.3015  137.1364  164.6632 N.ar    1  UNL1       -0.1221
     22 N         141.0046  137.0212  163.1974 N.ar    1  UNL1       -0.1282
     23 C         141.8482  138.0280  162.4731 C.ar    1  UNL1        0.1669
     24 N         142.6666  138.7654  163.4913 N.ar    1  UNL1       -0.2884
     25 C         143.6501  139.8614  163.2059 C.3     1  UNL1        0.1340
     26 C         141.8697  138.2572  160.9909 C.ar    1  UNL1        0.0374
     27 C         142.7924  137.4557  160.1213 C.ar    1  UNL1        0.0031
     28 C         142.8139  137.6849  158.6391 C.ar    1  UNL1        0.0016
     29 C         141.9128  138.7156  158.0264 C.ar    1  UNL1        0.0191
     30 C         140.9901  139.5172  158.8960 C.ar    1  UNL1        0.0810
     31 N         140.0889  140.5479  158.2833 N.ar    1  UNL1       -0.2497
     32 C         139.1662  141.3496  159.1528 C.ar    1  UNL1        0.0593
     33 C         138.2650  142.3803  158.5402 C.3     1  UNL1        0.0521
     34 C         139.1447  141.1203  160.6351 C.ar    1  UNL1        0.0147
     35 C         140.0459  140.0895  161.2478 C.ar    1  UNL1        0.0028
     36 C         140.9686  139.2880  160.3782 C.ar    1  UNL1        0.0206
@<TRIPOS>BOND
     1     4     5    1
     2     5     6    2
     3     6     7    1
     4     7     8    1
     5     8     9    2
     6     9    10    1
     7    10    11    1
     8    11    12    1
     9    12     3    1
    10     3     2    1
    11     2     1    1
    12     1    19    1
    13    19    20    1
    14    20    21   ar
    15    21    22   ar
    16    22    23   ar
    17    23    26    1
    18    26    27   ar
    19    27    28   ar
    20    28    29   ar
    21    29    30   ar
    22    30    31   ar
    23    31    32   ar
    24    32    33    1
    25    32    34   ar
    26    34    35   ar
    27    35    36   ar
    28    23    24   ar
    29    24    25    1
    30    12    13    1
    31    13    14    1
    32    14    15    1
    33    15    16    2
    34    16    17    1
    35    17    18    1
    36    18     5    1
    37    17     7    1
    38    15     9    1
    39    24    20   ar
    40    36    26   ar
    41    36    30   ar
