@<TRIPOS>MOLECULE
*****
 29 33 0 0 0
SMALL
GASTEIGER

@<TRIPOS>ATOM
      1 C         138.0987  138.7104  166.8377 C.3     1  UNL1        0.0883
      2 O         140.7596  142.1668  172.1502 O.3     1  UNL1       -0.5058
      3 C         141.2659  141.9739  170.7515 C.ar    1  UNL1        0.1307
      4 C         142.5641  142.5970  170.3312 C.ar    1  UNL1        0.0368
      5 C         143.0704  142.4042  168.9325 C.ar    1  UNL1        0.0095
      6 C         142.2785  141.5883  167.9540 C.ar    1  UNL1        0.0306
      7 BR        142.7849  141.3955  166.5553 Br      1  UNL1       -0.0493
      8 C         140.9804  140.9653  168.3743 C.ar    1  UNL1       -0.0143
      9 C         140.4741  141.1581  169.7730 C.ar    1  UNL1        0.0239
     10 C         139.1760  140.5350  170.1933 C.3     1  UNL1        0.0984
     11 N         138.3842  139.7191  169.2149 N.3     1  UNL1       -0.2934
     12 C         138.8905  139.5263  167.8161 C.3     1  UNL1        0.0748
     13 C         140.1887  140.1494  167.3959 C.3     1  UNL1        0.0438
     14 H         141.2542  142.6764  172.7614 H       1  UNL1        0.2922
     15 H         137.4674  140.1596  169.1380 H       1  UNL1        0.1236
     16 N         138.3735  138.8277  165.3677 N.3     1  UNL1       -0.2715
     17 C         138.1538  140.1349  164.6656 C.3     1  UNL1        0.0725
     18 C         138.4286  140.2522  163.1957 C.3     1  UNL1        0.0214
     19 C         138.9231  139.0623  162.4279 C.3     1  UNL1        0.0216
     20 C         139.4182  137.9648  161.5331 C.3     1  UNL1        0.0088
     21 C         139.5521  138.5219  160.1468 C.3     1  UNL1        0.0264
     22 C         139.1397  139.9636  160.1847 C.ar    1  UNL1       -0.0261
     23 C         139.0680  141.0155  159.1178 C.ar    1  UNL1       -0.0046
     24 C         138.6076  142.4012  159.4605 C.ar    1  UNL1       -0.0003
     25 C         138.2188  142.7353  160.8702 C.ar    1  UNL1       -0.0003
     26 C         138.2905  141.6834  161.9372 C.ar    1  UNL1       -0.0046
     27 C         138.7510  140.2976  161.5945 C.ar    1  UNL1       -0.0266
     28 C         139.1428  137.7551  163.1299 C.3     1  UNL1        0.0214
     29 C         138.8680  137.6378  164.5999 C.3     1  UNL1        0.0725
@<TRIPOS>BOND
     1     2     3    1
     2     3     4   ar
     3     4     5   ar
     4     5     6   ar
     5     6     7    1
     6     6     8   ar
     7     8     9   ar
     8     9    10    1
     9    10    11    1
    10    11    12    1
    11    12     1    1
    12     1    16    1
    13    16    17    1
    14    17    18    1
    15    18    19    1
    16    19    20    1
    17    20    21    1
    18    21    22    1
    19    22    23   ar
    20    23    24   ar
    21    24    25   ar
    22    25    26   ar
    23    26    27   ar
    24    19    28    1
    25    28    29    1
    26    12    13    1
    27     9     3   ar
    28    29    16    1
    29    13     8    1
    30    27    19    1
    31    27    22   ar
    32     2    14    1
    33    11    15    1
@<TRIPOS>MOLECULE
*****
 29 33 0 0 0
SMALL
GASTEIGER

@<TRIPOS>ATOM
      1 C         143.7248  138.2689  166.3730 C.3     1  UNL1        0.0883
      2 O         140.9119  140.8034  172.1101 O.3     1  UNL1       -0.5058
      3 C         140.8969  141.3150  170.7001 C.ar    1  UNL1        0.1307
      4 C         140.1749  142.5883  170.3720 C.ar    1  UNL1        0.0368
      5 C         140.1598  143.0999  168.9620 C.ar    1  UNL1        0.0095
      6 C         140.8669  142.3383  167.8802 C.ar    1  UNL1        0.0306
      7 BR        140.8518  142.8500  166.4703 Br      1  UNL1       -0.0493
      8 C         141.5888  141.0652  168.2084 C.ar    1  UNL1       -0.0143
      9 C         141.6039  140.5535  169.6184 C.ar    1  UNL1        0.0239
     10 C         142.3258  139.2804  169.9466 C.3     1  UNL1        0.0984
     11 N         143.0328  138.5188  168.8648 N.3     1  UNL1       -0.2934
     12 C         143.0178  139.0304  167.4548 C.3     1  UNL1        0.0748
     13 C         142.2958  140.3037  167.1266 C.3     1  UNL1        0.0438
     14 H         140.4703  141.2791  172.7858 H       1  UNL1        0.2922
     15 H         142.6208  137.5859  168.8439 H       1  UNL1        0.1236
     16 N         143.4936  138.6218  164.9335 N.3     1  UNL1       -0.2715
     17 C         142.2020  138.2492  164.2681 C.3     1  UNL1        0.0725
     18 C         141.9709  138.6022  162.8286 C.3     1  UNL1        0.0214
     19 C         143.0314  139.3277  162.0547 C.3     1  UNL1        0.0216
     20 C         143.9941  140.0481  161.1579 C.3     1  UNL1        0.0088
     21 C         143.3546  140.1878  159.8082 C.3     1  UNL1        0.0264
     22 C         141.9966  139.5538  159.8708 C.ar    1  UNL1       -0.0261
     23 C         140.9162  139.3918  158.8430 C.ar    1  UNL1       -0.0046
     24 C         139.6360  138.6983  159.2035 C.ar    1  UNL1       -0.0003
     25 C         139.4361  138.1667  160.5919 C.ar    1  UNL1       -0.0003
     26 C         140.5166  138.3286  161.6197 C.ar    1  UNL1       -0.0046
     27 C         141.7968  139.0222  161.2592 C.ar    1  UNL1       -0.0266
     28 C         144.3230  139.7003  162.7202 C.3     1  UNL1        0.0214
     29 C         144.5541  139.3474  164.1596 C.3     1  UNL1        0.0725
@<TRIPOS>BOND
     1     2     3    1
     2     3     4   ar
     3     4     5   ar
     4     5     6   ar
     5     6     7    1
     6     6     8   ar
     7     8     9   ar
     8     9    10    1
     9    10    11    1
    10    11    12    1
    11    12     1    1
    12     1    16    1
    13    16    17    1
    14    17    18    1
    15    18    19    1
    16    19    20    1
    17    20    21    1
    18    21    22    1
    19    22    23   ar
    20    23    24   ar
    21    24    25   ar
    22    25    26   ar
    23    26    27   ar
    24    19    28    1
    25    28    29    1
    26    12    13    1
    27     9     3   ar
    28    29    16    1
    29    13     8    1
    30    27    19    1
    31    27    22   ar
    32     2    14    1
    33    11    15    1
@<TRIPOS>MOLECULE
*****
 29 33 0 0 0
SMALL
GASTEIGER

@<TRIPOS>ATOM
      1 C         141.7158  138.4789  157.9184 C.3     1  UNL1        0.0883
      2 O         145.2209  139.2865  163.7760 O.3     1  UNL1       -0.5058
      3 C         143.7947  138.8911  163.5316 C.ar    1  UNL1        0.1307
      4 C         142.8883  138.5989  164.6905 C.ar    1  UNL1        0.0368
      5 C         141.4621  138.2035  164.4461 C.ar    1  UNL1        0.0095
      6 C         140.9424  138.1005  163.0427 C.ar    1  UNL1        0.0306
      7 BR        139.5162  137.7051  162.7983 Br      1  UNL1       -0.0493
      8 C         141.8488  138.3927  161.8839 C.ar    1  UNL1       -0.0143
      9 C         143.2750  138.7881  162.1283 C.ar    1  UNL1        0.0239
     10 C         144.1814  139.0804  160.9695 C.3     1  UNL1        0.0984
     11 N         143.6617  138.9773  159.5661 N.3     1  UNL1       -0.2934
     12 C         142.2355  138.5819  159.3217 C.3     1  UNL1        0.0748
     13 C         141.3291  138.2897  160.4806 C.3     1  UNL1        0.0438
     14 H         145.5455  139.3509  164.6526 H       1  UNL1        0.2922
     15 H         144.2439  138.2910  159.0862 H       1  UNL1        0.1236
     16 N         141.8745  137.1993  157.1519 N.3     1  UNL1       -0.2715
     17 C         142.9031  136.1934  157.5763 C.3     1  UNL1        0.0725
     18 C         143.0618  134.9139  156.8098 C.3     1  UNL1        0.0214
     19 C         142.1919  134.6402  155.6189 C.3     1  UNL1        0.0216
     20 C         141.3984  134.2301  154.4138 C.3     1  UNL1        0.0088
     21 C         141.8880  132.8825  153.9730 C.3     1  UNL1        0.0264
     22 C         142.9842  132.4597  154.9056 C.ar    1  UNL1       -0.0261
     23 C         143.8356  131.2260  154.9601 C.ar    1  UNL1       -0.0046
     24 C         144.8747  131.0785  156.0316 C.ar    1  UNL1       -0.0003
     25 C         145.0625  132.1649  157.0489 C.ar    1  UNL1       -0.0003
     26 C         144.2111  133.3986  156.9945 C.ar    1  UNL1       -0.0046
     27 C         143.1720  133.5460  155.9228 C.ar    1  UNL1       -0.0266
     28 C         141.1633  135.6461  155.1945 C.3     1  UNL1        0.0214
     29 C         141.0046  136.9256  155.9610 C.3     1  UNL1        0.0725
@<TRIPOS>BOND
     1     2     3    1
     2     3     4   ar
     3     4     5   ar
     4     5     6   ar
     5     6     7    1
     6     6     8   ar
     7     8     9   ar
     8     9    10    1
     9    10    11    1
    10    11    12    1
    11    12     1    1
    12     1    16    1
    13    16    17    1
    14    17    18    1
    15    18    19    1
    16    19    20    1
    17    20    21    1
    18    21    22    1
    19    22    23   ar
    20    23    24   ar
    21    24    25   ar
    22    25    26   ar
    23    26    27   ar
    24    19    28    1
    25    28    29    1
    26    12    13    1
    27     9     3   ar
    28    29    16    1
    29    13     8    1
    30    27    19    1
    31    27    22   ar
    32     2    14    1
    33    11    15    1
@<TRIPOS>MOLECULE
*****
 29 33 0 0 0
SMALL
GASTEIGER

@<TRIPOS>ATOM
      1 C         138.4900  138.8993  166.3259 C.3     1  UNL1        0.0883
      2 O         140.5577  141.9331  172.1371 O.3     1  UNL1       -0.5058
      3 C         141.1749  141.9057  170.7703 C.ar    1  UNL1        0.1307
      4 C         142.4635  142.6298  170.5145 C.ar    1  UNL1        0.0368
      5 C         143.0807  142.6024  169.1477 C.ar    1  UNL1        0.0095
      6 C         142.4094  141.8508  168.0366 C.ar    1  UNL1        0.0306
      7 BR        143.0267  141.8233  166.6697 Br      1  UNL1       -0.0493
      8 C         141.1210  141.1266  168.2923 C.ar    1  UNL1       -0.0143
      9 C         140.5037  141.1541  169.6592 C.ar    1  UNL1        0.0239
     10 C         139.2153  140.4300  169.9149 C.3     1  UNL1        0.0984
     11 N         138.5440  139.6783  168.8038 N.3     1  UNL1       -0.2934
     12 C         139.1612  139.6509  167.4370 C.3     1  UNL1        0.0748
     13 C         140.4498  140.3751  167.1813 C.3     1  UNL1        0.0438
     14 H         140.9770  142.4026  172.8312 H       1  UNL1        0.2922
     15 H         137.6121  140.0793  168.6981 H       1  UNL1        0.1236
     16 N         138.8610  139.1795  164.8997 N.3     1  UNL1       -0.2715
     17 C         140.0167  138.4599  164.2701 C.3     1  UNL1        0.0725
     18 C         140.3876  138.7401  162.8440 C.3     1  UNL1        0.0214
     19 C         139.6028  139.7399  162.0475 C.3     1  UNL1        0.0216
     20 C         138.9144  140.7078  161.1312 C.3     1  UNL1        0.0088
     21 C         139.6135  140.6675  159.8046 C.3     1  UNL1        0.0264
     22 C         140.7338  139.6747  159.9010 C.ar    1  UNL1       -0.0261
     23 C         141.7592  139.2187  158.9056 C.ar    1  UNL1       -0.0046
     24 C         142.7779  138.1894  159.2964 C.ar    1  UNL1       -0.0003
     25 C         142.7713  137.6161  160.6825 C.ar    1  UNL1       -0.0003
     26 C         141.7460  138.0722  161.6779 C.ar    1  UNL1       -0.0046
     27 C         140.7273  139.1015  161.2871 C.ar    1  UNL1       -0.0266
     28 C         138.4471  140.4595  162.6771 C.3     1  UNL1        0.0214
     29 C         138.0762  140.1793  164.1032 C.3     1  UNL1        0.0725
@<TRIPOS>BOND
     1     2     3    1
     2     3     4   ar
     3     4     5   ar
     4     5     6   ar
     5     6     7    1
     6     6     8   ar
     7     8     9   ar
     8     9    10    1
     9    10    11    1
    10    11    12    1
    11    12     1    1
    12     1    16    1
    13    16    17    1
    14    17    18    1
    15    18    19    1
    16    19    20    1
    17    20    21    1
    18    21    22    1
    19    22    23   ar
    20    23    24   ar
    21    24    25   ar
    22    25    26   ar
    23    26    27   ar
    24    19    28    1
    25    28    29    1
    26    12    13    1
    27     9     3   ar
    28    29    16    1
    29    13     8    1
    30    27    19    1
    31    27    22   ar
    32     2    14    1
    33    11    15    1
@<TRIPOS>MOLECULE
*****
 29 33 0 0 0
SMALL
GASTEIGER

@<TRIPOS>ATOM
      1 C         138.8504  137.7161  164.1799 C.3     1  UNL1        0.0883
      2 O         139.5627  139.6792  157.6310 O.3     1  UNL1       -0.5058
      3 C         139.1496  140.4520  158.8484 C.ar    1  UNL1        0.1307
      4 C         138.8113  141.9089  158.7330 C.ar    1  UNL1        0.0368
      5 C         138.3983  142.6817  159.9504 C.ar    1  UNL1        0.0095
      6 C         138.3235  141.9976  161.2833 C.ar    1  UNL1        0.0306
      7 BR        137.9104  142.7704  162.5008 Br      1  UNL1       -0.0493
      8 C         138.6617  140.5408  161.3987 C.ar    1  UNL1       -0.0143
      9 C         139.0748  139.7681  160.1813 C.ar    1  UNL1        0.0239
     10 C         139.4131  138.3113  160.2967 C.3     1  UNL1        0.0984
     11 N         139.3383  137.6272  161.6296 N.3     1  UNL1       -0.2934
     12 C         138.9252  138.4000  162.8471 C.3     1  UNL1        0.0748
     13 C         138.5869  139.8569  162.7316 C.3     1  UNL1        0.0438
     14 H         139.6094  140.1065  156.7984 H       1  UNL1        0.2922
     15 H         140.2672  137.2517  161.8204 H       1  UNL1        0.1236
     16 N         139.1147  138.4913  165.4366 N.3     1  UNL1       -0.2715
     17 C         140.4003  139.2477  165.5948 C.3     1  UNL1        0.0725
     18 C         140.6646  140.0228  166.8515 C.3     1  UNL1        0.0214
     19 C         139.6433  140.0415  167.9500 C.3     1  UNL1        0.0216
     20 C         138.7211  140.1526  169.1278 C.3     1  UNL1        0.0088
     21 C         139.3841  141.0215  170.1553 C.3     1  UNL1        0.0264
     22 C         140.7160  141.4474  169.6124 C.ar    1  UNL1       -0.0261
     23 C         141.8036  142.3085  170.1830 C.ar    1  UNL1       -0.0046
     24 C         143.0514  142.5640  169.3908 C.ar    1  UNL1       -0.0003
     25 C         143.2116  141.9584  168.0278 C.ar    1  UNL1       -0.0003
     26 C         142.1240  141.0973  167.4572 C.ar    1  UNL1       -0.0046
     27 C         140.8762  140.8418  168.2495 C.ar    1  UNL1       -0.0266
     28 C         138.3577  139.2851  167.7918 C.3     1  UNL1        0.0214
     29 C         138.0935  138.5100  166.5351 C.3     1  UNL1        0.0725
@<TRIPOS>BOND
     1     2     3    1
     2     3     4   ar
     3     4     5   ar
     4     5     6   ar
     5     6     7    1
     6     6     8   ar
     7     8     9   ar
     8     9    10    1
     9    10    11    1
    10    11    12    1
    11    12     1    1
    12     1    16    1
    13    16    17    1
    14    17    18    1
    15    18    19    1
    16    19    20    1
    17    20    21    1
    18    21    22    1
    19    22    23   ar
    20    23    24   ar
    21    24    25   ar
    22    25    26   ar
    23    26    27   ar
    24    19    28    1
    25    28    29    1
    26    12    13    1
    27     9     3   ar
    28    29    16    1
    29    13     8    1
    30    27    19    1
    31    27    22   ar
    32     2    14    1
    33    11    15    1
@<TRIPOS>MOLECULE
*****
 29 33 0 0 0
SMALL
GASTEIGER

@<TRIPOS>ATOM
      1 C         143.2010  138.3131  165.9144 C.3     1  UNL1        0.0883
      2 O         141.9407  141.1327  172.0553 O.3     1  UNL1       -0.5058
      3 C         141.5532  141.5726  170.6746 C.ar    1  UNL1        0.1307
      4 C         140.7537  142.8275  170.4840 C.ar    1  UNL1        0.0368
      5 C         140.3662  143.2674  169.1033 C.ar    1  UNL1        0.0095
      6 C         140.7782  142.4525  167.9132 C.ar    1  UNL1        0.0306
      7 BR        140.3907  142.8924  166.5325 Br      1  UNL1       -0.0493
      8 C         141.5776  141.1977  168.1039 C.ar    1  UNL1       -0.0143
      9 C         141.9651  140.7578  169.4846 C.ar    1  UNL1        0.0239
     10 C         142.7646  139.5030  169.6752 C.3     1  UNL1        0.0984
     11 N         143.1765  138.6881  168.4851 N.3     1  UNL1       -0.2934
     12 C         142.7890  139.1280  167.1044 C.3     1  UNL1        0.0748
     13 C         141.9895  140.3828  166.9138 C.3     1  UNL1        0.0438
     14 H         141.6833  141.6417  172.7987 H       1  UNL1        0.2922
     15 H         142.7858  137.7552  168.6175 H       1  UNL1        0.1236
     16 N         142.3400  138.2909  164.6862 N.3     1  UNL1       -0.2715
     17 C         142.9550  138.5060  163.3351 C.3     1  UNL1        0.0725
     18 C         142.0941  138.4837  162.1071 C.3     1  UNL1        0.0214
     19 C         140.6181  138.2464  162.2301 C.3     1  UNL1        0.0216
     20 C         139.1353  138.0220  162.1967 C.3     1  UNL1        0.0088
     21 C         138.6895  138.0815  160.7657 C.3     1  UNL1        0.0264
     22 C         139.8968  138.3427  159.9146 C.ar    1  UNL1       -0.0261
     23 C         140.0648  138.5010  158.4325 C.ar    1  UNL1       -0.0046
     24 C         141.4246  138.7611  157.8554 C.ar    1  UNL1       -0.0003
     25 C         142.6166  138.8630  158.7604 C.ar    1  UNL1       -0.0003
     26 C         142.4486  138.7047  160.2425 C.ar    1  UNL1       -0.0046
     27 C         141.0887  138.4446  160.8196 C.ar    1  UNL1       -0.0266
     28 C         140.0031  138.0313  163.5811 C.3     1  UNL1        0.0214
     29 C         140.8640  138.0536  164.8092 C.3     1  UNL1        0.0725
@<TRIPOS>BOND
     1     2     3    1
     2     3     4   ar
     3     4     5   ar
     4     5     6   ar
     5     6     7    1
     6     6     8   ar
     7     8     9   ar
     8     9    10    1
     9    10    11    1
    10    11    12    1
    11    12     1    1
    12     1    16    1
    13    16    17    1
    14    17    18    1
    15    18    19    1
    16    19    20    1
    17    20    21    1
    18    21    22    1
    19    22    23   ar
    20    23    24   ar
    21    24    25   ar
    22    25    26   ar
    23    26    27   ar
    24    19    28    1
    25    28    29    1
    26    12    13    1
    27     9     3   ar
    28    29    16    1
    29    13     8    1
    30    27    19    1
    31    27    22   ar
    32     2    14    1
    33    11    15    1
@<TRIPOS>MOLECULE
*****
 29 33 0 0 0
SMALL
GASTEIGER

@<TRIPOS>ATOM
      1 C         139.1577  137.4971  163.5365 C.3     1  UNL1        0.0883
      2 O         143.6560  138.5811  158.4533 O.3     1  UNL1       -0.5058
      3 C         142.2421  139.0496  158.6298 C.ar    1  UNL1        0.1307
      4 C         141.5992  139.9063  157.5796 C.ar    1  UNL1        0.0368
      5 C         140.1853  140.3749  157.7561 C.ar    1  UNL1        0.0095
      6 C         139.4141  139.9867  158.9829 C.ar    1  UNL1        0.0306
      7 BR        138.0002  140.4553  159.1594 Br      1  UNL1       -0.0493
      8 C         140.0570  139.1301  160.0330 C.ar    1  UNL1       -0.0143
      9 C         141.4710  138.6615  159.8565 C.ar    1  UNL1        0.0239
     10 C         142.1138  137.8048  160.9066 C.3     1  UNL1        0.0984
     11 N         141.3427  137.4167  162.1333 N.3     1  UNL1       -0.2934
     12 C         139.9288  137.8853  162.3098 C.3     1  UNL1        0.0748
     13 C         139.2859  138.7420  161.2596 C.3     1  UNL1        0.0438
     14 H         144.1377  138.8235  157.6870 H       1  UNL1        0.2922
     15 H         141.8701  137.7635  162.9346 H       1  UNL1        0.1236
     16 N         139.3415  138.2647  164.8121 N.3     1  UNL1       -0.2715
     17 C         140.5708  139.1002  165.0141 C.3     1  UNL1        0.0725
     18 C         140.7546  139.8678  166.2897 C.3     1  UNL1        0.0214
     19 C         139.7091  139.7998  167.3632 C.3     1  UNL1        0.0216
     20 C         138.7547  139.8290  168.5200 C.3     1  UNL1        0.0088
     21 C         139.3354  140.7202  169.5777 C.3     1  UNL1        0.0264
     22 C         140.6487  141.2418  169.0745 C.ar    1  UNL1       -0.0261
     23 C         141.6641  142.1613  169.6858 C.ar    1  UNL1       -0.0046
     24 C         142.9104  142.5119  168.9285 C.ar    1  UNL1       -0.0003
     25 C         143.1415  141.9431  167.5598 C.ar    1  UNL1       -0.0003
     26 C         142.1261  141.0236  166.9486 C.ar    1  UNL1       -0.0046
     27 C         140.8797  140.6730  167.7059 C.ar    1  UNL1       -0.0266
     28 C         138.4799  138.9643  167.1612 C.3     1  UNL1        0.0214
     29 C         138.2961  138.1968  165.8856 C.3     1  UNL1        0.0725
@<TRIPOS>BOND
     1     2     3    1
     2     3     4   ar
     3     4     5   ar
     4     5     6   ar
     5     6     7    1
     6     6     8   ar
     7     8     9   ar
     8     9    10    1
     9    10    11    1
    10    11    12    1
    11    12     1    1
    12     1    16    1
    13    16    17    1
    14    17    18    1
    15    18    19    1
    16    19    20    1
    17    20    21    1
    18    21    22    1
    19    22    23   ar
    20    23    24   ar
    21    24    25   ar
    22    25    26   ar
    23    26    27   ar
    24    19    28    1
    25    28    29    1
    26    12    13    1
    27     9     3   ar
    28    29    16    1
    29    13     8    1
    30    27    19    1
    31    27    22   ar
    32     2    14    1
    33    11    15    1
@<TRIPOS>MOLECULE
*****
 29 33 0 0 0
SMALL
GASTEIGER

@<TRIPOS>ATOM
      1 C         139.1774  144.6142  162.5998 C.3     1  UNL1        0.0883
      2 O         142.6101  145.1131  156.6654 O.3     1  UNL1       -0.5058
      3 C         142.7804  144.1738  157.8224 C.ar    1  UNL1        0.1307
      4 C         143.8515  143.1243  157.7849 C.ar    1  UNL1        0.0368
      5 C         144.0219  142.1850  158.9419 C.ar    1  UNL1        0.0095
      6 C         143.1211  142.2951  160.1363 C.ar    1  UNL1        0.0306
      7 BR        143.2914  141.3558  161.2933 Br      1  UNL1       -0.0493
      8 C         142.0500  143.3445  160.1737 C.ar    1  UNL1       -0.0143
      9 C         141.8797  144.2839  159.0167 C.ar    1  UNL1        0.0239
     10 C         140.8086  145.3333  159.0541 C.3     1  UNL1        0.0984
     11 N         139.9078  145.4435  160.2485 N.3     1  UNL1       -0.2934
     12 C         140.0782  144.5041  161.4055 C.3     1  UNL1        0.0748
     13 C         141.1493  143.4546  161.3681 C.3     1  UNL1        0.0438
     14 H         143.1727  145.0444  155.9193 H       1  UNL1        0.2922
     15 H         138.9533  145.3231  159.9095 H       1  UNL1        0.1236
     16 N         139.2037  143.5527  163.6594 N.3     1  UNL1       -0.2715
     17 C         139.9990  143.7644  164.9135 C.3     1  UNL1        0.0725
     18 C         140.0252  142.7029  165.9730 C.3     1  UNL1        0.0214
     19 C         139.2561  141.4299  165.7785 C.3     1  UNL1        0.0216
     20 C         138.5409  140.1125  165.7246 C.3     1  UNL1        0.0088
     21 C         138.8449  139.3678  166.9908 C.3     1  UNL1        0.0264
     22 C         139.7481  140.2250  167.8272 C.ar    1  UNL1       -0.0261
     23 C         140.3720  140.0098  169.1742 C.ar    1  UNL1       -0.0046
     24 C         141.2499  141.0689  169.7720 C.ar    1  UNL1       -0.0003
     25 C         141.5041  142.3434  169.0227 C.ar    1  UNL1       -0.0003
     26 C         140.8803  142.5586  167.6757 C.ar    1  UNL1       -0.0046
     27 C         140.0023  141.4994  167.0779 C.ar    1  UNL1       -0.0266
     28 C         138.4609  141.2182  164.5244 C.3     1  UNL1        0.0214
     29 C         138.4346  142.2797  163.4649 C.3     1  UNL1        0.0725
@<TRIPOS>BOND
     1     2     3    1
     2     3     4   ar
     3     4     5   ar
     4     5     6   ar
     5     6     7    1
     6     6     8   ar
     7     8     9   ar
     8     9    10    1
     9    10    11    1
    10    11    12    1
    11    12     1    1
    12     1    16    1
    13    16    17    1
    14    17    18    1
    15    18    19    1
    16    19    20    1
    17    20    21    1
    18    21    22    1
    19    22    23   ar
    20    23    24   ar
    21    24    25   ar
    22    25    26   ar
    23    26    27   ar
    24    19    28    1
    25    28    29    1
    26    12    13    1
    27     9     3   ar
    28    29    16    1
    29    13     8    1
    30    27    19    1
    31    27    22   ar
    32     2    14    1
    33    11    15    1
@<TRIPOS>MOLECULE
*****
 29 33 0 0 0
SMALL
GASTEIGER

@<TRIPOS>ATOM
      1 C         138.0452  140.2031  162.8434 C.3     1  UNL1        0.0883
      2 O         139.3703  143.2288  156.8152 O.3     1  UNL1       -0.5058
      3 C         139.5983  143.6992  158.2212 C.ar    1  UNL1        0.1307
      4 C         140.2147  145.0436  158.4716 C.ar    1  UNL1        0.0368
      5 C         140.4427  145.5140  159.8775 C.ar    1  UNL1        0.0095
      6 C         140.0544  144.6399  161.0331 C.ar    1  UNL1        0.0306
      7 BR        140.2824  145.1103  162.4391 Br      1  UNL1       -0.0493
      8 C         139.4381  143.2956  160.7827 C.ar    1  UNL1       -0.0143
      9 C         139.2101  142.8252  159.3767 C.ar    1  UNL1        0.0239
     10 C         138.5937  141.4808  159.1263 C.3     1  UNL1        0.0984
     11 N         138.2054  140.6067  160.2819 N.3     1  UNL1       -0.2934
     12 C         138.4335  141.0771  161.6879 C.3     1  UNL1        0.0748
     13 C         139.0498  142.4216  161.9382 C.3     1  UNL1        0.0438
     14 H         139.6128  143.7747  156.0934 H       1  UNL1        0.2922
     15 H         138.7210  139.7329  160.1765 H       1  UNL1        0.1236
     16 N         138.9904  140.0159  163.9930 N.3     1  UNL1       -0.2715
     17 C         138.5270  140.2777  165.3954 C.3     1  UNL1        0.0725
     18 C         139.4722  140.0904  166.5449 C.3     1  UNL1        0.0214
     19 C         140.8809  139.6414  166.2920 C.3     1  UNL1        0.0216
     20 C         142.3110  139.1994  166.1946 C.3     1  UNL1        0.0088
     21 C         142.8760  139.1481  167.5832 C.3     1  UNL1        0.0264
     22 C         141.7951  139.5585  168.5389 C.ar    1  UNL1       -0.0261
     23 C         141.7742  139.6940  170.0326 C.ar    1  UNL1       -0.0046
     24 C         140.5205  140.1343  170.7283 C.ar    1  UNL1       -0.0003
     25 C         139.2874  140.4392  169.9304 C.ar    1  UNL1       -0.0003
     26 C         139.3082  140.3037  168.4366 C.ar    1  UNL1       -0.0046
     27 C         140.5621  139.8634  167.7409 C.ar    1  UNL1       -0.0266
     28 C         141.3444  139.3797  164.8897 C.3     1  UNL1        0.0214
     29 C         140.3992  139.5669  163.7402 C.3     1  UNL1        0.0725
@<TRIPOS>BOND
     1     2     3    1
     2     3     4   ar
     3     4     5   ar
     4     5     6   ar
     5     6     7    1
     6     6     8   ar
     7     8     9   ar
     8     9    10    1
     9    10    11    1
    10    11    12    1
    11    12     1    1
    12     1    16    1
    13    16    17    1
    14    17    18    1
    15    18    19    1
    16    19    20    1
    17    20    21    1
    18    21    22    1
    19    22    23   ar
    20    23    24   ar
    21    24    25   ar
    22    25    26   ar
    23    26    27   ar
    24    19    28    1
    25    28    29    1
    26    12    13    1
    27     9     3   ar
    28    29    16    1
    29    13     8    1
    30    27    19    1
    31    27    22   ar
    32     2    14    1
    33    11    15    1
