@<TRIPOS>MOLECULE
*****
 28 31 0 0 0
SMALL
GASTEIGER

@<TRIPOS>ATOM
      1 C         139.2021  141.5562  165.3092 C.ar    1  UNL1       -0.0000
      2 C         138.1481  140.4920  165.2287 C.ar    1  UNL1       -0.0000
      3 C         138.2416  139.2762  166.1024 C.ar    1  UNL1       -0.0001
      4 C         139.3889  139.1249  167.0567 C.ar    1  UNL1        0.0009
      5 C         140.4429  140.1892  167.1372 C.ar    1  UNL1        0.0355
      6 C         140.3495  141.4048  166.2634 C.ar    1  UNL1        0.0009
      7 C         141.5903  140.0379  168.0914 C.3     1  UNL1        0.2508
      8 N         142.9115  139.8833  168.7846 N.2     1  UNL1       -0.0586
      9 C         142.6568  139.8348  170.2621 C.2     1  UNL1        0.3016
     10 N         143.6979  139.6875  171.3319 N.pl3   1  UNL1       -0.2494
     11 C         141.1783  139.9594  170.4819 C.3     1  UNL1        0.1781
     12 S         140.5191  140.0849  169.1404 S.3     1  UNL1       -0.0729
     13 H         144.6485  139.6125  171.0867 H       1  UNL1        0.2881
     14 H         143.4307  139.6660  172.2792 H       1  UNL1        0.2881
     15 C         142.4216  140.0224  166.8429 C.ar    1  UNL1        0.0386
     16 C         143.0774  141.2832  166.3630 C.ar    1  UNL1        0.0216
     17 C         143.9087  141.2677  165.1145 C.ar    1  UNL1        0.0987
     18 N         144.0842  139.9916  164.3460 N.ar    1  UNL1       -0.2423
     19 C         143.4284  138.7308  164.8259 C.ar    1  UNL1        0.0987
     20 C         142.5971  138.7463  166.0744 C.ar    1  UNL1        0.0216
     21 C         140.2397  144.8091  163.2862 C.ar    1  UNL1        0.1387
     22 C         138.9219  145.2032  162.6880 C.ar    1  UNL1        0.0369
     23 C         137.6975  144.3817  162.9634 C.ar    1  UNL1        0.0031
     24 C         137.7909  143.1661  163.8371 C.ar    1  UNL1        0.0002
     25 C         139.1087  142.7719  164.4354 C.ar    1  UNL1        0.0030
     26 C         140.3331  143.5934  164.1600 C.ar    1  UNL1        0.0369
     27 C         142.7680  145.2749  163.6615 C.3     1  UNL1        0.2525
     28 O         141.4642  145.6306  163.0108 O.3     1  UNL1       -0.4714
@<TRIPOS>BOND
     1    27    28    1
     2    28    21    1
     3    21    22   ar
     4    22    23   ar
     5    23    24   ar
     6    24    25   ar
     7    25     1    1
     8     1     2   ar
     9     2     3   ar
    10     3     4   ar
    11     4     5   ar
    12     5     7    1
    13     7    15    1
    14    15    16   ar
    15    16    17   ar
    16    17    18   ar
    17    18    19   ar
    18    19    20   ar
    19     7     8    1
    20     8     9    2
    21     9    10    1
    22     9    11    1
    23    11    12    1
    24     5     6   ar
    25    25    26   ar
    26    26    21   ar
    27     6     1   ar
    28    12     7    1
    29    20    15   ar
    30    10    13    1
    31    10    14    1
@<TRIPOS>MOLECULE
*****
 28 31 0 0 0
SMALL
GASTEIGER

@<TRIPOS>ATOM
      1 C         138.9232  140.8175  165.2180 C.ar    1  UNL1       -0.0000
      2 C         138.1167  139.6958  165.8020 C.ar    1  UNL1       -0.0000
      3 C         138.4195  139.1940  167.1828 C.ar    1  UNL1       -0.0001
      4 C         139.5289  139.8141  167.9795 C.ar    1  UNL1        0.0009
      5 C         140.3355  140.9358  167.3954 C.ar    1  UNL1        0.0355
      6 C         140.0327  141.4376  166.0147 C.ar    1  UNL1        0.0009
      7 C         141.4449  141.5559  168.1921 C.3     1  UNL1        0.2508
      8 N         142.7396  142.0374  168.7770 N.2     1  UNL1       -0.0586
      9 C         142.4219  142.8677  169.9852 C.2     1  UNL1        0.3016
     10 N         143.4200  143.5471  170.8753 N.pl3   1  UNL1       -0.2494
     11 C         140.9310  142.8993  170.1470 C.3     1  UNL1        0.1781
     12 S         140.3272  142.0885  169.0389 S.3     1  UNL1       -0.0729
     13 H         144.3828  143.4673  170.6861 H       1  UNL1        0.2881
     14 H         143.1122  144.0729  171.6487 H       1  UNL1        0.2881
     15 C         142.3308  140.8936  167.1788 C.ar    1  UNL1        0.0386
     16 C         142.5702  139.4143  167.2448 C.ar    1  UNL1        0.0216
     17 C         143.4560  138.7520  166.2315 C.ar    1  UNL1        0.0987
     18 N         144.1023  139.5690  165.1523 N.ar    1  UNL1       -0.2423
     19 C         143.8629  141.0483  165.0863 C.ar    1  UNL1        0.0987
     20 C         142.9771  141.7106  166.0996 C.ar    1  UNL1        0.0216
     21 C         138.5248  143.2686  162.1222 C.ar    1  UNL1        0.1387
     22 C         138.0147  142.3229  161.0757 C.ar    1  UNL1        0.0369
     23 C         137.8076  140.8753  161.4098 C.ar    1  UNL1        0.0031
     24 C         138.1104  140.3735  162.7906 C.ar    1  UNL1        0.0002
     25 C         138.6204  141.3193  163.8371 C.ar    1  UNL1        0.0030
     26 C         138.8276  142.7669  163.5030 C.ar    1  UNL1        0.0369
     27 C         139.7774  145.5110  162.5128 C.3     1  UNL1        0.2525
     28 O         138.7319  144.7162  161.7881 O.3     1  UNL1       -0.4714
@<TRIPOS>BOND
     1    27    28    1
     2    28    21    1
     3    21    22   ar
     4    22    23   ar
     5    23    24   ar
     6    24    25   ar
     7    25     1    1
     8     1     2   ar
     9     2     3   ar
    10     3     4   ar
    11     4     5   ar
    12     5     7    1
    13     7    15    1
    14    15    16   ar
    15    16    17   ar
    16    17    18   ar
    17    18    19   ar
    18    19    20   ar
    19     7     8    1
    20     8     9    2
    21     9    10    1
    22     9    11    1
    23    11    12    1
    24     5     6   ar
    25    25    26   ar
    26    26    21   ar
    27     6     1   ar
    28    12     7    1
    29    20    15   ar
    30    10    13    1
    31    10    14    1
@<TRIPOS>MOLECULE
*****
 28 31 0 0 0
SMALL
GASTEIGER

@<TRIPOS>ATOM
      1 C         141.5183  143.2039  164.8500 C.ar    1  UNL1       -0.0000
      2 C         142.9874  143.2072  165.1527 C.ar    1  UNL1       -0.0000
      3 C         143.5156  142.4191  166.3147 C.ar    1  UNL1       -0.0001
      4 C         142.5745  141.6278  167.1739 C.ar    1  UNL1        0.0009
      5 C         141.1054  141.6245  166.8711 C.ar    1  UNL1        0.0355
      6 C         140.5773  142.4126  165.7092 C.ar    1  UNL1        0.0009
      7 C         140.1643  140.8332  167.7303 C.3     1  UNL1        0.2508
      8 N         139.2003  139.8572  168.3370 N.2     1  UNL1       -0.0586
      9 C         138.9114  140.3025  169.7400 C.2     1  UNL1        0.3016
     10 N         137.9974  139.6170  170.7120 N.pl3   1  UNL1       -0.2494
     11 C         139.6968  141.5536  170.0003 C.3     1  UNL1        0.1781
     12 S         140.4712  141.8816  168.7583 S.3     1  UNL1       -0.0729
     13 H         137.5230  138.7961  170.4467 H       1  UNL1        0.2881
     14 H         137.8719  139.9879  171.6153 H       1  UNL1        0.2881
     15 C         140.0542  139.9502  166.5227 C.ar    1  UNL1        0.0386
     16 C         138.7542  139.8531  165.7808 C.ar    1  UNL1        0.0216
     17 C         138.6441  138.9701  164.5732 C.ar    1  UNL1        0.0987
     18 N         139.8339  138.1844  164.1076 N.ar    1  UNL1       -0.2423
     19 C         141.1339  138.2815  164.8495 C.ar    1  UNL1        0.0987
     20 C         141.2440  139.1644  166.0571 C.ar    1  UNL1        0.0216
     21 C         141.2479  144.8535  161.2506 C.ar    1  UNL1        0.1387
     22 C         139.9340  145.5681  161.3643 C.ar    1  UNL1        0.0369
     23 C         139.1482  145.4946  162.6398 C.ar    1  UNL1        0.0031
     24 C         139.6763  144.7066  163.8017 C.ar    1  UNL1        0.0002
     25 C         140.9902  143.9920  163.6881 C.ar    1  UNL1        0.0030
     26 C         141.7760  144.0655  162.4125 C.ar    1  UNL1        0.0369
     27 C         141.3732  145.3975  158.7132 C.3     1  UNL1        0.2525
     28 O         142.0338  144.9270  159.9750 O.3     1  UNL1       -0.4714
@<TRIPOS>BOND
     1    27    28    1
     2    28    21    1
     3    21    22   ar
     4    22    23   ar
     5    23    24   ar
     6    24    25   ar
     7    25     1    1
     8     1     2   ar
     9     2     3   ar
    10     3     4   ar
    11     4     5   ar
    12     5     7    1
    13     7    15    1
    14    15    16   ar
    15    16    17   ar
    16    17    18   ar
    17    18    19   ar
    18    19    20   ar
    19     7     8    1
    20     8     9    2
    21     9    10    1
    22     9    11    1
    23    11    12    1
    24     5     6   ar
    25    25    26   ar
    26    26    21   ar
    27     6     1   ar
    28    12     7    1
    29    20    15   ar
    30    10    13    1
    31    10    14    1
@<TRIPOS>MOLECULE
*****
 28 31 0 0 0
SMALL
GASTEIGER

@<TRIPOS>ATOM
      1 C         138.8854  140.8064  165.2654 C.ar    1  UNL1       -0.0000
      2 C         138.0856  139.6830  165.8554 C.ar    1  UNL1       -0.0000
      3 C         138.3958  139.1859  167.2363 C.ar    1  UNL1       -0.0001
      4 C         139.5059  139.8122  168.0271 C.ar    1  UNL1        0.0009
      5 C         140.3057  140.9357  167.4371 C.ar    1  UNL1        0.0355
      6 C         139.9955  141.4328  166.0563 C.ar    1  UNL1        0.0009
      7 C         141.4158  141.5621  168.2279 C.3     1  UNL1        0.2508
      8 N         142.7106  142.0530  168.8045 N.2     1  UNL1       -0.0586
      9 C         142.3951  142.8735  170.0200 C.2     1  UNL1        0.3016
     10 N         143.3941  143.5577  170.9055 N.pl3   1  UNL1       -0.2494
     11 C         140.9054  142.8896  170.1946 C.3     1  UNL1        0.1781
     12 S         140.3002  142.0792  169.0870 S.3     1  UNL1       -0.0729
     13 H         144.3560  143.4883  170.7078 H       1  UNL1        0.2881
     14 H         143.0877  144.0761  171.6844 H       1  UNL1        0.2881
     15 C         142.2994  140.9141  167.2035 C.ar    1  UNL1        0.0386
     16 C         142.5380  139.4339  167.2476 C.ar    1  UNL1        0.0216
     17 C         143.4216  138.7859  166.2231 C.ar    1  UNL1        0.0987
     18 N         144.0665  139.6181  165.1547 N.ar    1  UNL1       -0.2423
     19 C         143.8278  141.0983  165.1107 C.ar    1  UNL1        0.0987
     20 C         142.9443  141.7463  166.1351 C.ar    1  UNL1        0.0216
     21 C         138.2203  140.8394  161.3531 C.ar    1  UNL1        0.1387
     22 C         137.9548  142.2977  161.1230 C.ar    1  UNL1        0.0369
     23 C         137.9995  143.2589  162.2737 C.ar    1  UNL1        0.0031
     24 C         138.3097  142.7618  163.6545 C.ar    1  UNL1        0.0002
     25 C         138.5752  141.3036  163.8846 C.ar    1  UNL1        0.0030
     26 C         138.5305  140.3424  162.7339 C.ar    1  UNL1        0.0369
     27 C         139.2462  138.8385  160.0516 C.3     1  UNL1        0.2525
     28 O         138.1756  139.8782  160.2024 O.3     1  UNL1       -0.4714
@<TRIPOS>BOND
     1    27    28    1
     2    28    21    1
     3    21    22   ar
     4    22    23   ar
     5    23    24   ar
     6    24    25   ar
     7    25     1    1
     8     1     2   ar
     9     2     3   ar
    10     3     4   ar
    11     4     5   ar
    12     5     7    1
    13     7    15    1
    14    15    16   ar
    15    16    17   ar
    16    17    18   ar
    17    18    19   ar
    18    19    20   ar
    19     7     8    1
    20     8     9    2
    21     9    10    1
    22     9    11    1
    23    11    12    1
    24     5     6   ar
    25    25    26   ar
    26    26    21   ar
    27     6     1   ar
    28    12     7    1
    29    20    15   ar
    30    10    13    1
    31    10    14    1
@<TRIPOS>MOLECULE
*****
 28 31 0 0 0
SMALL
GASTEIGER

@<TRIPOS>ATOM
      1 C         141.3650  142.9149  164.7330 C.ar    1  UNL1       -0.0000
      2 C         142.7864  142.8680  165.2098 C.ar    1  UNL1       -0.0000
      3 C         143.1711  141.9501  166.3321 C.ar    1  UNL1       -0.0001
      4 C         142.1343  141.0791  166.9776 C.ar    1  UNL1        0.0009
      5 C         140.7129  141.1260  166.5007 C.ar    1  UNL1        0.0355
      6 C         140.3282  142.0439  165.3785 C.ar    1  UNL1        0.0009
      7 C         139.6761  140.2551  167.1462 C.3     1  UNL1        0.2508
      8 N         138.7307  139.5273  168.0553 N.2     1  UNL1       -0.0586
      9 C         137.9265  138.5747  167.2210 C.2     1  UNL1        0.3016
     10 N         136.8609  137.6461  167.7233 N.pl3   1  UNL1       -0.2494
     11 C         138.3750  138.7137  165.7964 C.3     1  UNL1        0.1781
     12 S         139.4563  139.7523  165.7501 S.3     1  UNL1       -0.0729
     13 H         136.6362  137.6271  168.6816 H       1  UNL1        0.2881
     14 H         136.3863  137.0555  167.0946 H       1  UNL1        0.2881
     15 C         140.1127  140.9400  168.4072 C.ar    1  UNL1        0.0386
     16 C         140.6202  140.1302  169.5633 C.ar    1  UNL1        0.0216
     17 C         141.0568  140.8151  170.8244 C.ar    1  UNL1        0.0987
     18 N         140.9859  142.3097  170.9293 N.ar    1  UNL1       -0.2423
     19 C         140.4784  143.1195  169.7733 C.ar    1  UNL1        0.0987
     20 C         140.0418  142.4346  168.5122 C.ar    1  UNL1        0.0216
     21 C         141.3681  144.7282  161.2029 C.ar    1  UNL1        0.1387
     22 C         140.2109  145.6685  161.3662 C.ar    1  UNL1        0.0369
     23 C         139.4384  145.6909  162.6517 C.ar    1  UNL1        0.0031
     24 C         139.8231  144.7731  163.7740 C.ar    1  UNL1        0.0002
     25 C         140.9802  143.8328  163.6107 C.ar    1  UNL1        0.0030
     26 C         141.7528  143.8103  162.3251 C.ar    1  UNL1        0.0369
     27 C         141.5195  145.2372  158.6597 C.3     1  UNL1        0.2525
     28 O         142.1406  144.7057  159.9173 O.3     1  UNL1       -0.4714
@<TRIPOS>BOND
     1    27    28    1
     2    28    21    1
     3    21    22   ar
     4    22    23   ar
     5    23    24   ar
     6    24    25   ar
     7    25     1    1
     8     1     2   ar
     9     2     3   ar
    10     3     4   ar
    11     4     5   ar
    12     5     7    1
    13     7    15    1
    14    15    16   ar
    15    16    17   ar
    16    17    18   ar
    17    18    19   ar
    18    19    20   ar
    19     7     8    1
    20     8     9    2
    21     9    10    1
    22     9    11    1
    23    11    12    1
    24     5     6   ar
    25    25    26   ar
    26    26    21   ar
    27     6     1   ar
    28    12     7    1
    29    20    15   ar
    30    10    13    1
    31    10    14    1
@<TRIPOS>MOLECULE
*****
 28 31 0 0 0
SMALL
GASTEIGER

@<TRIPOS>ATOM
      1 C         139.6234  139.2749  165.1987 C.ar    1  UNL1       -0.0000
      2 C         138.4693  138.8317  166.0481 C.ar    1  UNL1       -0.0000
      3 C         138.4040  139.2313  167.4925 C.ar    1  UNL1       -0.0001
      4 C         139.4929  140.0742  168.0873 C.ar    1  UNL1        0.0009
      5 C         140.6470  140.5175  167.2378 C.ar    1  UNL1        0.0355
      6 C         140.7122  140.1179  165.7935 C.ar    1  UNL1        0.0009
      7 C         141.7359  141.3604  167.8327 C.3     1  UNL1        0.2508
      8 N         142.7642  142.3938  168.1858 N.2     1  UNL1       -0.0586
      9 C         143.4617  141.9453  169.4358 C.2     1  UNL1        0.3016
     10 N         144.5631  142.6786  170.1423 N.pl3   1  UNL1       -0.2494
     11 C         142.8645  140.6347  169.8550 C.3     1  UNL1        0.1781
     12 S         141.7979  140.2733  168.8643 S.3     1  UNL1       -0.0729
     13 H         144.8893  143.5372  169.7878 H       1  UNL1        0.2881
     14 H         144.9598  142.3013  170.9606 H       1  UNL1        0.2881
     15 C         141.4462  142.2714  166.6767 C.ar    1  UNL1        0.0386
     16 C         140.1112  142.9468  166.5704 C.ar    1  UNL1        0.0216
     17 C         139.8215  143.8577  165.4144 C.ar    1  UNL1        0.0987
     18 N         140.8669  144.0932  164.3648 N.ar    1  UNL1       -0.2423
     19 C         142.2019  143.4178  164.4711 C.ar    1  UNL1        0.0987
     20 C         142.4916  142.5069  165.6271 C.ar    1  UNL1        0.0216
     21 C         141.0844  138.2928  161.6419 C.ar    1  UNL1        0.1387
     22 C         139.8192  138.0761  160.8658 C.ar    1  UNL1        0.0369
     23 C         138.4888  138.2590  161.5339 C.ar    1  UNL1        0.0031
     24 C         138.4235  138.6586  162.9782 C.ar    1  UNL1        0.0002
     25 C         139.6886  138.8753  163.7543 C.ar    1  UNL1        0.0030
     26 C         141.0191  138.6924  163.0861 C.ar    1  UNL1        0.0369
     27 C         143.6669  138.0559  161.7979 C.3     1  UNL1        0.2525
     28 O         142.4148  138.1098  160.9737 O.3     1  UNL1       -0.4714
@<TRIPOS>BOND
     1    27    28    1
     2    28    21    1
     3    21    22   ar
     4    22    23   ar
     5    23    24   ar
     6    24    25   ar
     7    25     1    1
     8     1     2   ar
     9     2     3   ar
    10     3     4   ar
    11     4     5   ar
    12     5     7    1
    13     7    15    1
    14    15    16   ar
    15    16    17   ar
    16    17    18   ar
    17    18    19   ar
    18    19    20   ar
    19     7     8    1
    20     8     9    2
    21     9    10    1
    22     9    11    1
    23    11    12    1
    24     5     6   ar
    25    25    26   ar
    26    26    21   ar
    27     6     1   ar
    28    12     7    1
    29    20    15   ar
    30    10    13    1
    31    10    14    1
@<TRIPOS>MOLECULE
*****
 28 31 0 0 0
SMALL
GASTEIGER

@<TRIPOS>ATOM
      1 C         141.6485  143.1902  164.9624 C.ar    1  UNL1       -0.0000
      2 C         143.1284  143.4157  165.0563 C.ar    1  UNL1       -0.0000
      3 C         143.9169  142.7714  166.1578 C.ar    1  UNL1       -0.0001
      4 C         143.2254  141.9015  167.1653 C.ar    1  UNL1        0.0009
      5 C         141.7454  141.6760  167.0714 C.ar    1  UNL1        0.0355
      6 C         140.9570  142.3203  165.9700 C.ar    1  UNL1        0.0009
      7 C         141.0539  140.8061  168.0789 C.3     1  UNL1        0.2508
      8 N         140.3256  139.7410  168.8438 N.2     1  UNL1       -0.0586
      9 C         140.1960  140.1986  170.2665 C.2     1  UNL1        0.3016
     10 N         139.5343  139.4412  171.3794 N.pl3   1  UNL1       -0.2494
     11 C         140.8442  141.5464  170.3808 C.3     1  UNL1        0.1781
     12 S         141.3744  141.9219  169.0288 S.3     1  UNL1       -0.0729
     13 H         139.1350  138.5584  171.2047 H       1  UNL1        0.2881
     14 H         139.4994  139.8268  172.2845 H       1  UNL1        0.2881
     15 C         140.8779  139.8722  166.9184 C.ar    1  UNL1        0.0386
     16 C         139.5105  139.6295  166.3517 C.ar    1  UNL1        0.0216
     17 C         139.3345  138.6956  165.1912 C.ar    1  UNL1        0.0987
     18 N         140.5260  138.0044  164.5974 N.ar    1  UNL1       -0.2423
     19 C         141.8934  138.2471  165.1640 C.ar    1  UNL1        0.0987
     20 C         142.0694  139.1810  166.3246 C.ar    1  UNL1        0.0216
     21 C         139.0172  143.6958  162.0349 C.ar    1  UNL1        0.1387
     22 C         139.2831  145.1231  161.6581 C.ar    1  UNL1        0.0369
     23 C         140.3374  145.9062  162.3828 C.ar    1  UNL1        0.0031
     24 C         141.1259  145.2619  163.4842 C.ar    1  UNL1        0.0002
     25 C         140.8600  143.8346  163.8609 C.ar    1  UNL1        0.0030
     26 C         139.8056  143.0515  163.1363 C.ar    1  UNL1        0.0369
     27 C         137.8632  141.4289  161.5060 C.3     1  UNL1        0.2525
     28 O         137.9628  142.9127  161.3102 O.3     1  UNL1       -0.4714
@<TRIPOS>BOND
     1    27    28    1
     2    28    21    1
     3    21    22   ar
     4    22    23   ar
     5    23    24   ar
     6    24    25   ar
     7    25     1    1
     8     1     2   ar
     9     2     3   ar
    10     3     4   ar
    11     4     5   ar
    12     5     7    1
    13     7    15    1
    14    15    16   ar
    15    16    17   ar
    16    17    18   ar
    17    18    19   ar
    18    19    20   ar
    19     7     8    1
    20     8     9    2
    21     9    10    1
    22     9    11    1
    23    11    12    1
    24     5     6   ar
    25    25    26   ar
    26    26    21   ar
    27     6     1   ar
    28    12     7    1
    29    20    15   ar
    30    10    13    1
    31    10    14    1
@<TRIPOS>MOLECULE
*****
 28 31 0 0 0
SMALL
GASTEIGER

@<TRIPOS>ATOM
      1 C         139.8485  141.0411  167.0390 C.ar    1  UNL1       -0.0000
      2 C         139.0817  139.8248  166.6119 C.ar    1  UNL1       -0.0000
      3 C         138.5117  139.7455  165.2267 C.ar    1  UNL1       -0.0001
      4 C         138.7085  140.8827  164.2685 C.ar    1  UNL1        0.0009
      5 C         139.4754  142.0991  164.6956 C.ar    1  UNL1        0.0355
      6 C         140.0453  142.1783  166.0808 C.ar    1  UNL1        0.0009
      7 C         139.6722  143.2363  163.7374 C.3     1  UNL1        0.2508
      8 N         140.1688  144.2814  162.7829 N.2     1  UNL1       -0.0586
      9 C         139.0007  145.1301  162.3761 C.2     1  UNL1        0.3016
     10 N         139.0436  146.2949  161.4320 N.pl3   1  UNL1       -0.2494
     11 C         137.7823  144.6096  163.0794 C.3     1  UNL1        0.1781
     12 S         138.1973  143.4392  163.9207 S.3     1  UNL1       -0.0729
     13 H         139.8960  146.5619  161.0179 H       1  UNL1        0.2881
     14 H         138.2194  146.7925  161.2263 H       1  UNL1        0.2881
     15 C         141.1059  142.7957  163.7545 C.ar    1  UNL1        0.0386
     16 C         142.1226  143.5810  164.5287 C.ar    1  UNL1        0.0216
     17 C         143.5564  143.1404  164.5458 C.ar    1  UNL1        0.0987
     18 N         143.9733  141.9145  163.7886 N.ar    1  UNL1       -0.2423
     19 C         142.9566  141.1292  163.0144 C.ar    1  UNL1        0.0987
     20 C         141.5229  141.5698  162.9973 C.ar    1  UNL1        0.0216
     21 C         142.0913  142.1703  170.1122 C.ar    1  UNL1        0.1387
     22 C         141.5585  141.2789  171.1946 C.ar    1  UNL1        0.0369
     23 C         140.4557  140.3083  170.8918 C.ar    1  UNL1        0.0031
     24 C         139.8857  140.2290  169.5066 C.ar    1  UNL1        0.0002
     25 C         140.4185  141.1204  168.4242 C.ar    1  UNL1        0.0030
     26 C         141.5213  142.0910  168.7270 C.ar    1  UNL1        0.0369
     27 C         144.6117  142.7991  170.0634 C.3     1  UNL1        0.2525
     28 O         143.1942  143.1409  170.4150 O.3     1  UNL1       -0.4714
@<TRIPOS>BOND
     1    27    28    1
     2    28    21    1
     3    21    22   ar
     4    22    23   ar
     5    23    24   ar
     6    24    25   ar
     7    25     1    1
     8     1     2   ar
     9     2     3   ar
    10     3     4   ar
    11     4     5   ar
    12     5     7    1
    13     7    15    1
    14    15    16   ar
    15    16    17   ar
    16    17    18   ar
    17    18    19   ar
    18    19    20   ar
    19     7     8    1
    20     8     9    2
    21     9    10    1
    22     9    11    1
    23    11    12    1
    24     5     6   ar
    25    25    26   ar
    26    26    21   ar
    27     6     1   ar
    28    12     7    1
    29    20    15   ar
    30    10    13    1
    31    10    14    1
@<TRIPOS>MOLECULE
*****
 28 31 0 0 0
SMALL
GASTEIGER

@<TRIPOS>ATOM
      1 C         141.8332  142.3091  166.5653 C.ar    1  UNL1       -0.0000
      2 C         143.2895  142.5145  166.8602 C.ar    1  UNL1       -0.0000
      3 C         144.1910  143.1013  165.8148 C.ar    1  UNL1       -0.0001
      4 C         143.6362  143.4828  164.4744 C.ar    1  UNL1        0.0009
      5 C         142.1798  143.2774  164.1794 C.ar    1  UNL1        0.0355
      6 C         141.2784  142.6906  165.2249 C.ar    1  UNL1        0.0009
      7 C         141.6250  143.6588  162.8390 C.3     1  UNL1        0.2508
      8 N         141.1941  143.7673  161.4064 N.2     1  UNL1       -0.0586
      9 C         140.4508  145.0599  161.2426 C.2     1  UNL1        0.3016
     10 N         139.8428  145.5723  159.9706 N.pl3   1  UNL1       -0.2494
     11 C         140.4222  145.7502  162.5740 C.3     1  UNL1        0.1781
     12 S         141.1479  144.8842  163.5607 S.3     1  UNL1       -0.0729
     13 H         139.9144  145.0439  159.1430 H       1  UNL1        0.2881
     14 H         139.3721  146.4369  159.9634 H       1  UNL1        0.2881
     15 C         142.2180  142.3536  162.3976 C.ar    1  UNL1        0.0386
     16 C         143.5247  142.3345  161.6614 C.ar    1  UNL1        0.0216
     17 C         144.1178  141.0293  161.2200 C.ar    1  UNL1        0.0987
     18 N         143.4041  139.7433  161.5148 N.ar    1  UNL1       -0.2423
     19 C         142.0974  139.7625  162.2510 C.ar    1  UNL1        0.0987
     20 C         141.5043  141.0677  162.6924 C.ar    1  UNL1        0.0216
     21 C         139.1047  140.0093  168.3021 C.ar    1  UNL1        0.1387
     22 C         139.1287  140.5487  169.7016 C.ar    1  UNL1        0.0369
     23 C         140.0541  141.6748  170.0556 C.ar    1  UNL1        0.0031
     24 C         140.9556  142.2616  169.0102 C.ar    1  UNL1        0.0002
     25 C         140.9317  141.7223  167.6108 C.ar    1  UNL1        0.0030
     26 C         140.0062  140.5962  167.2567 C.ar    1  UNL1        0.0369
     27 C         137.9271  138.5440  166.5089 C.3     1  UNL1        0.2525
     28 O         138.1793  138.8832  167.9481 O.3     1  UNL1       -0.4714
@<TRIPOS>BOND
     1    27    28    1
     2    28    21    1
     3    21    22   ar
     4    22    23   ar
     5    23    24   ar
     6    24    25   ar
     7    25     1    1
     8     1     2   ar
     9     2     3   ar
    10     3     4   ar
    11     4     5   ar
    12     5     7    1
    13     7    15    1
    14    15    16   ar
    15    16    17   ar
    16    17    18   ar
    17    18    19   ar
    18    19    20   ar
    19     7     8    1
    20     8     9    2
    21     9    10    1
    22     9    11    1
    23    11    12    1
    24     5     6   ar
    25    25    26   ar
    26    26    21   ar
    27     6     1   ar
    28    12     7    1
    29    20    15   ar
    30    10    13    1
    31    10    14    1
