@<TRIPOS>MOLECULE
*****
 38 41 0 0 0
SMALL
GASTEIGER

@<TRIPOS>ATOM
      1 C         138.5475  140.3428  158.9974 C.ar    1  UNL1        0.0655
      2 C         137.8758  140.8280  160.2477 C.ar    1  UNL1        0.0337
      3 C         138.0391  140.0675  161.5304 C.ar    1  UNL1        0.0862
      4 C         138.8742  138.8219  161.5626 C.ar    1  UNL1        0.1534
      5 C         139.5459  138.3367  160.3121 C.ar    1  UNL1        0.0539
      6 C         139.3825  139.0972  159.0295 C.ar    1  UNL1        0.0647
      7 C         137.1134  140.9811  156.9272 C.2     1  UNL1        0.2497
      8 O         136.2387  140.3753  157.1790 O.2     1  UNL1       -0.2698
      9 N         138.3841  141.1033  157.7148 N.am    1  UNL1       -0.2794
     10 H         139.1108  141.6826  157.3900 H       1  UNL1        0.1552
     11 C         136.9573  143.2415  155.6557 C.2     1  UNL1        0.0048
     12 C         136.9500  141.7416  155.6446 C.2     1  UNL1        0.0580
     13 N         137.3675  140.5527  162.7807 N.pl3   1  UNL1       -0.2801
     14 H         136.5259  140.1386  163.0798 H       1  UNL1        0.1552
     15 C         137.9779  141.6689  163.5753 C.ar    1  UNL1        0.2207
     16 N         137.3278  143.0206  163.5919 N.ar    1  UNL1       -0.2120
     17 C         137.9383  144.1367  164.3866 C.ar    1  UNL1        0.1034
     18 C         139.1989  143.9012  165.1646 C.ar    1  UNL1        0.0400
     19 C         139.8491  142.5495  165.1480 C.ar    1  UNL1        0.0873
     20 N         139.2386  141.4334  164.3534 N.ar    1  UNL1       -0.2135
     21 C         141.1098  142.3140  165.9260 C.2     1  UNL1        0.0380
     22 C         142.3978  141.7767  165.3762 C.2     1  UNL1        0.0999
     23 N         143.3877  141.7051  166.5009 N.2     1  UNL1       -0.2478
     24 C         142.7115  142.1981  167.7458 C.2     1  UNL1        0.0634
     25 C         143.1958  142.3530  169.1569 C.3     1  UNL1        0.0717
     26 C         142.2723  142.8841  170.2128 C.2     1  UNL1       -0.0198
     27 C         140.8644  143.2604  169.8575 C.2     1  UNL1       -0.0041
     28 C         140.3801  143.1056  168.4463 C.2     1  UNL1        0.0010
     29 C         141.3036  142.5744  167.3905 C.2     1  UNL1        0.0168
     30 O         139.0376  138.0614  162.8451 O.3     1  UNL1       -0.4701
     31 C         140.3557  137.4282  163.1789 C.3     1  UNL1        0.2525
     32 N         140.0542  138.6119  157.7792 N.pl3   1  UNL1       -0.3033
     33 C         139.6680  137.8770  157.0674 C.3     1  UNL1        0.1123
     34 C         141.4028  139.1457  157.3968 C.3     1  UNL1        0.1082
     35 C         142.6449  138.4225  157.8258 C.3     1  UNL1        0.0938
     36 N         143.1843  138.6158  159.2120 N.3     1  UNL1       -0.2688
     37 C         143.8456  139.9092  159.5859 C.3     1  UNL1        0.0897
     38 C         143.0625  137.5157  160.2245 C.3     1  UNL1        0.0897
@<TRIPOS>BOND
     1    11    12    2
     2    12     7    1
     3     7     8    2
     4     7     9   am
     5     9     1    1
     6     1     2   ar
     7     2     3   ar
     8     3    13    1
     9    13    15    1
    10    15    16   ar
    11    16    17   ar
    12    17    18   ar
    13    18    19   ar
    14    19    21    1
    15    21    22    2
    16    22    23    1
    17    23    24    2
    18    24    25    1
    19    25    26    1
    20    26    27    2
    21    27    28    1
    22    28    29    2
    23    19    20   ar
    24     3     4   ar
    25     4    30    1
    26    30    31    1
    27     4     5   ar
    28     5     6   ar
    29     6    32    1
    30    32    33    1
    31    32    34    1
    32    34    35    1
    33    35    36    1
    34    36    37    1
    35    36    38    1
    36     6     1   ar
    37    20    15   ar
    38    29    21    1
    39    29    24    1
    40     9    10    1
    41    13    14    1
@<TRIPOS>MOLECULE
*****
 38 41 0 0 0
SMALL
GASTEIGER

@<TRIPOS>ATOM
      1 C         143.2293  143.7567  161.7508 C.ar    1  UNL1        0.0655
      2 C         143.3716  143.9960  163.2247 C.ar    1  UNL1        0.0337
      3 C         144.1722  143.0458  164.0651 C.ar    1  UNL1        0.0862
      4 C         144.8305  141.8562  163.4315 C.ar    1  UNL1        0.1534
      5 C         144.6882  141.6168  161.9575 C.ar    1  UNL1        0.0539
      6 C         143.8876  142.5671  161.1172 C.ar    1  UNL1        0.0647
      7 C         140.9322  144.6083  160.8860 C.2     1  UNL1        0.2497
      8 O         140.3108  143.8931  161.4319 O.2     1  UNL1       -0.2698
      9 N         142.4287  144.7069  160.9104 N.am    1  UNL1       -0.2794
     10 H         142.8855  145.3953  160.3750 H       1  UNL1        0.1552
     11 C         140.3913  145.6580  158.5718 C.2     1  UNL1        0.0048
     12 C         140.1315  145.5585  160.0457 C.2     1  UNL1        0.0580
     13 N         144.3144  143.2853  165.5390 N.pl3   1  UNL1       -0.2801
     14 H         144.9804  143.9299  165.8709 H       1  UNL1        0.1552
     15 C         143.4420  142.5426  166.5071 C.ar    1  UNL1        0.2207
     16 N         143.6585  142.6980  167.9833 N.ar    1  UNL1       -0.2120
     17 C         142.7861  141.9553  168.9514 C.ar    1  UNL1        0.1034
     18 C         141.6972  141.0573  168.4435 C.ar    1  UNL1        0.0400
     19 C         141.4808  140.9020  166.9672 C.ar    1  UNL1        0.0873
     20 N         142.3532  141.6446  165.9992 N.ar    1  UNL1       -0.2135
     21 C         140.3919  140.0040  166.4593 C.2     1  UNL1        0.0380
     22 C         139.1104  139.6832  167.1697 C.2     1  UNL1        0.0999
     23 N         138.3199  138.7501  166.3012 N.2     1  UNL1       -0.2478
     24 C         139.1129  138.4942  165.0539 C.2     1  UNL1        0.0634
     25 C         138.8343  137.6556  163.8418 C.3     1  UNL1        0.0717
     26 C         139.8364  137.5919  162.7275 C.2     1  UNL1       -0.0198
     27 C         141.1169  138.3669  162.8252 C.2     1  UNL1       -0.0041
     28 C         141.3955  139.2055  164.0372 C.2     1  UNL1        0.0010
     29 C         140.3935  139.2691  165.1516 C.2     1  UNL1        0.0168
     30 O         145.6311  140.9060  164.2718 O.3     1  UNL1       -0.4701
     31 C         145.1639  139.4928  164.4576 C.3     1  UNL1        0.2525
     32 N         143.7454  142.3276  159.6433 N.pl3   1  UNL1       -0.3033
     33 C         144.5189  142.4468  158.8795 C.3     1  UNL1        0.1123
     34 C         142.4310  141.8744  159.0804 C.3     1  UNL1        0.1082
     35 C         141.7145  140.7082  159.6940 C.3     1  UNL1        0.0938
     36 N         142.1249  139.3081  159.3456 N.3     1  UNL1       -0.2688
     37 C         143.3985  138.7404  159.8983 C.3     1  UNL1        0.0897
     38 C         141.2616  138.4758  158.4445 C.3     1  UNL1        0.0897
@<TRIPOS>BOND
     1    11    12    2
     2    12     7    1
     3     7     8    2
     4     7     9   am
     5     9     1    1
     6     1     2   ar
     7     2     3   ar
     8     3    13    1
     9    13    15    1
    10    15    16   ar
    11    16    17   ar
    12    17    18   ar
    13    18    19   ar
    14    19    21    1
    15    21    22    2
    16    22    23    1
    17    23    24    2
    18    24    25    1
    19    25    26    1
    20    26    27    2
    21    27    28    1
    22    28    29    2
    23    19    20   ar
    24     3     4   ar
    25     4    30    1
    26    30    31    1
    27     4     5   ar
    28     5     6   ar
    29     6    32    1
    30    32    33    1
    31    32    34    1
    32    34    35    1
    33    35    36    1
    34    36    37    1
    35    36    38    1
    36     6     1   ar
    37    20    15   ar
    38    29    21    1
    39    29    24    1
    40     9    10    1
    41    13    14    1
@<TRIPOS>MOLECULE
*****
 38 41 0 0 0
SMALL
GASTEIGER

@<TRIPOS>ATOM
      1 C         140.7212  143.6286  160.7091 C.ar    1  UNL1        0.0655
      2 C         139.6626  142.8681  161.4513 C.ar    1  UNL1        0.0337
      3 C         138.7242  141.9667  160.7051 C.ar    1  UNL1        0.0862
      4 C         138.8445  141.8257  159.2166 C.ar    1  UNL1        0.1534
      5 C         139.9032  142.5862  158.4743 C.ar    1  UNL1        0.0539
      6 C         140.8415  143.4877  159.2206 C.ar    1  UNL1        0.0647
      7 C         142.7335  143.9425  162.3222 C.2     1  UNL1        0.2497
      8 O         142.9348  142.8813  162.4922 O.2     1  UNL1       -0.2698
      9 N         141.6595  144.5301  161.4554 N.am    1  UNL1       -0.2794
     10 H         141.5706  145.5073  161.3762 H       1  UNL1        0.1552
     11 C         144.0818  144.5042  164.4708 C.2     1  UNL1        0.0048
     12 C         143.6719  144.8439  163.0685 C.2     1  UNL1        0.0580
     13 N         137.6656  141.2062  161.4474 N.pl3   1  UNL1       -0.2801
     14 H         136.7167  141.4407  161.3292 H       1  UNL1        0.1552
     15 C         138.0525  140.0885  162.3699 C.ar    1  UNL1        0.2207
     16 N         138.3212  138.7198  161.8182 N.ar    1  UNL1       -0.2120
     17 C         138.7082  137.6021  162.7407 C.ar    1  UNL1        0.1034
     18 C         138.8264  137.8531  164.2148 C.ar    1  UNL1        0.0400
     19 C         138.5577  139.2219  164.7665 C.ar    1  UNL1        0.0873
     20 N         138.1708  140.3395  163.8440 N.ar    1  UNL1       -0.2135
     21 C         138.6760  139.4729  166.2406 C.2     1  UNL1        0.0380
     22 C         137.8759  138.8003  167.3165 C.2     1  UNL1        0.0999
     23 N         138.3206  139.3524  168.6384 N.2     1  UNL1       -0.2478
     24 C         139.3954  140.3661  168.3796 C.2     1  UNL1        0.0634
     25 C         140.2025  141.2310  169.3018 C.3     1  UNL1        0.0717
     26 C         141.2292  142.1704  168.7421 C.2     1  UNL1       -0.0198
     27 C         141.4489  142.2449  167.2601 C.2     1  UNL1       -0.0041
     28 C         140.6418  141.3800  166.3379 C.2     1  UNL1        0.0010
     29 C         139.6151  140.4407  166.8976 C.2     1  UNL1        0.0168
     30 O         137.9061  140.9242  158.4703 O.3     1  UNL1       -0.4701
     31 C         138.2632  140.4428  157.0953 C.3     1  UNL1        0.2525
     32 N         141.9001  144.2481  158.4783 N.pl3   1  UNL1       -0.3033
     33 C         142.8929  143.8876  158.1950 C.3     1  UNL1        0.1123
     34 C         141.6436  145.6607  158.0440 C.3     1  UNL1        0.1082
     35 C         140.2500  146.0997  157.7047 C.3     1  UNL1        0.0938
     36 N         139.7888  146.0951  156.2774 N.3     1  UNL1       -0.2688
     37 C         140.1801  144.9697  155.3663 C.3     1  UNL1        0.0897
     38 C         138.9362  147.2161  155.7611 C.3     1  UNL1        0.0897
@<TRIPOS>BOND
     1    11    12    2
     2    12     7    1
     3     7     8    2
     4     7     9   am
     5     9     1    1
     6     1     2   ar
     7     2     3   ar
     8     3    13    1
     9    13    15    1
    10    15    16   ar
    11    16    17   ar
    12    17    18   ar
    13    18    19   ar
    14    19    21    1
    15    21    22    2
    16    22    23    1
    17    23    24    2
    18    24    25    1
    19    25    26    1
    20    26    27    2
    21    27    28    1
    22    28    29    2
    23    19    20   ar
    24     3     4   ar
    25     4    30    1
    26    30    31    1
    27     4     5   ar
    28     5     6   ar
    29     6    32    1
    30    32    33    1
    31    32    34    1
    32    34    35    1
    33    35    36    1
    34    36    37    1
    35    36    38    1
    36     6     1   ar
    37    20    15   ar
    38    29    21    1
    39    29    24    1
    40     9    10    1
    41    13    14    1
@<TRIPOS>MOLECULE
*****
 38 41 0 0 0
SMALL
GASTEIGER

@<TRIPOS>ATOM
      1 C         141.1986  138.0116  163.8910 C.ar    1  UNL1        0.0655
      2 C         142.0703  138.0022  162.6704 C.ar    1  UNL1        0.0337
      3 C         141.4528  138.1002  161.3069 C.ar    1  UNL1        0.0862
      4 C         139.9635  138.2076  161.1641 C.ar    1  UNL1        0.1534
      5 C         139.0917  138.2169  162.3848 C.ar    1  UNL1        0.0539
      6 C         139.7093  138.1189  163.7482 C.ar    1  UNL1        0.0647
      7 C         142.3384  139.1460  165.9315 C.2     1  UNL1        0.2497
      8 O         142.3279  140.1667  165.5397 O.2     1  UNL1       -0.2698
      9 N         141.8162  137.9136  165.2545 N.am    1  UNL1       -0.2794
     10 H         141.8788  137.0404  165.7049 H       1  UNL1        0.1552
     11 C         142.3528  139.7955  168.4471 C.2     1  UNL1        0.0048
     12 C         142.9560  139.0481  167.2950 C.2     1  UNL1        0.0580
     13 N         142.3245  138.0909  160.0863 N.pl3   1  UNL1       -0.2801
     14 H         142.5955  137.2354  159.6815 H       1  UNL1        0.1552
     15 C         142.7835  139.3850  159.4824 C.ar    1  UNL1        0.2207
     16 N         143.8768  139.3874  158.4555 N.ar    1  UNL1       -0.2120
     17 C         144.3357  140.6815  157.8516 C.ar    1  UNL1        0.1034
     18 C         143.7013  141.9732  158.2747 C.ar    1  UNL1        0.0400
     19 C         142.6079  141.9708  159.3017 C.ar    1  UNL1        0.0873
     20 N         142.1491  140.6767  159.9055 N.ar    1  UNL1       -0.2135
     21 C         141.9735  143.2626  159.7248 C.2     1  UNL1        0.0380
     22 C         141.4866  144.3469  158.8099 C.2     1  UNL1        0.0999
     23 N         140.9269  145.4512  159.6567 N.2     1  UNL1       -0.2478
     24 C         141.0678  145.0494  161.0950 C.2     1  UNL1        0.0634
     25 C         140.6907  145.7404  162.3718 C.3     1  UNL1        0.0717
     26 C         140.9605  145.0787  163.6906 C.2     1  UNL1       -0.0198
     27 C         141.6074  143.7260  163.7327 C.2     1  UNL1       -0.0041
     28 C         141.9845  143.0350  162.4559 C.2     1  UNL1        0.0010
     29 C         141.7147  143.6967  161.1371 C.2     1  UNL1        0.0168
     30 O         139.3459  138.3056  159.8006 O.3     1  UNL1       -0.4701
     31 C         138.7304  139.5961  159.3470 C.3     1  UNL1        0.2525
     32 N         138.8375  138.1282  164.9688 N.pl3   1  UNL1       -0.3033
     33 C         138.5211  137.2631  165.5583 C.3     1  UNL1        0.1123
     34 C         138.3031  139.4257  165.4990 C.3     1  UNL1        0.1082
     35 C         138.8929  140.7248  165.0359 C.3     1  UNL1        0.0938
     36 N         138.0648  141.6781  164.2263 N.3     1  UNL1       -0.2688
     37 C         137.9749  143.1207  164.6271 C.3     1  UNL1        0.0897
     38 C         137.3265  141.1887  163.0158 C.3     1  UNL1        0.0897
@<TRIPOS>BOND
     1    11    12    2
     2    12     7    1
     3     7     8    2
     4     7     9   am
     5     9     1    1
     6     1     2   ar
     7     2     3   ar
     8     3    13    1
     9    13    15    1
    10    15    16   ar
    11    16    17   ar
    12    17    18   ar
    13    18    19   ar
    14    19    21    1
    15    21    22    2
    16    22    23    1
    17    23    24    2
    18    24    25    1
    19    25    26    1
    20    26    27    2
    21    27    28    1
    22    28    29    2
    23    19    20   ar
    24     3     4   ar
    25     4    30    1
    26    30    31    1
    27     4     5   ar
    28     5     6   ar
    29     6    32    1
    30    32    33    1
    31    32    34    1
    32    34    35    1
    33    35    36    1
    34    36    37    1
    35    36    38    1
    36     6     1   ar
    37    20    15   ar
    38    29    21    1
    39    29    24    1
    40     9    10    1
    41    13    14    1
@<TRIPOS>MOLECULE
*****
 38 41 0 0 0
SMALL
GASTEIGER

@<TRIPOS>ATOM
      1 C         142.6011  143.5731  159.6084 C.ar    1  UNL1        0.0655
      2 C         142.2389  144.3155  160.8604 C.ar    1  UNL1        0.0337
      3 C         142.9857  144.0483  162.1336 C.ar    1  UNL1        0.0862
      4 C         144.0947  143.0386  162.1547 C.ar    1  UNL1        0.1534
      5 C         144.4570  142.2961  160.9025 C.ar    1  UNL1        0.0539
      6 C         143.7101  142.5634  159.6294 C.ar    1  UNL1        0.0647
      7 C         141.9339  145.1915  157.6887 C.2     1  UNL1        0.2497
      8 O         142.4976  146.0587  158.0433 O.2     1  UNL1       -0.2698
      9 N         141.8542  143.8404  158.3353 N.am    1  UNL1       -0.2794
     10 H         141.3118  143.1291  157.9241 H       1  UNL1        0.1552
     11 C         141.8529  145.2247  155.0920 C.2     1  UNL1        0.0048
     12 C         141.1871  145.4589  156.4155 C.2     1  UNL1        0.0580
     13 N         142.6234  144.7908  163.3855 N.pl3   1  UNL1       -0.2801
     14 H         143.1819  145.5415  163.6917 H       1  UNL1        0.1552
     15 C         141.4103  144.3894  164.1712 C.ar    1  UNL1        0.2207
     16 N         140.1293  145.1543  164.0158 N.ar    1  UNL1       -0.2120
     17 C         138.9162  144.7530  164.8014 C.ar    1  UNL1        0.1034
     18 C         138.9840  143.5868  165.7424 C.ar    1  UNL1        0.0400
     19 C         140.2650  142.8219  165.8978 C.ar    1  UNL1        0.0873
     20 N         141.4781  143.2233  165.1121 N.ar    1  UNL1       -0.2135
     21 C         140.3328  141.6557  166.8387 C.2     1  UNL1        0.0380
     22 C         139.4081  140.4747  166.8472 C.2     1  UNL1        0.0999
     23 N         139.8410  139.5549  167.9501 N.2     1  UNL1       -0.2478
     24 C         141.0334  140.1675  168.6234 C.2     1  UNL1        0.0634
     25 C         141.8815  139.7107  169.7731 C.3     1  UNL1        0.0717
     26 C         143.0337  140.5523  170.2359 C.2     1  UNL1       -0.0198
     27 C         143.3376  141.8507  169.5490 C.2     1  UNL1       -0.0041
     28 C         142.4894  142.3075  168.3993 C.2     1  UNL1        0.0010
     29 C         141.3373  141.4658  167.9365 C.2     1  UNL1        0.0168
     30 O         144.8416  142.7713  163.4278 O.3     1  UNL1       -0.4701
     31 C         145.7981  141.6187  163.5083 C.3     1  UNL1        0.2525
     32 N         144.0724  141.8209  158.3775 N.pl3   1  UNL1       -0.3033
     33 C         143.8703  140.7697  158.1540 C.3     1  UNL1        0.1123
     34 C         144.7904  142.5287  157.2669 C.3     1  UNL1        0.1082
     35 C         145.9200  141.8491  156.5512 C.3     1  UNL1        0.0938
     36 N         147.3220  142.3583  156.7087 N.3     1  UNL1       -0.2688
     37 C         148.3735  141.9826  155.7071 C.3     1  UNL1        0.0897
     38 C         147.6728  143.2432  157.8680 C.3     1  UNL1        0.0897
@<TRIPOS>BOND
     1    11    12    2
     2    12     7    1
     3     7     8    2
     4     7     9   am
     5     9     1    1
     6     1     2   ar
     7     2     3   ar
     8     3    13    1
     9    13    15    1
    10    15    16   ar
    11    16    17   ar
    12    17    18   ar
    13    18    19   ar
    14    19    21    1
    15    21    22    2
    16    22    23    1
    17    23    24    2
    18    24    25    1
    19    25    26    1
    20    26    27    2
    21    27    28    1
    22    28    29    2
    23    19    20   ar
    24     3     4   ar
    25     4    30    1
    26    30    31    1
    27     4     5   ar
    28     5     6   ar
    29     6    32    1
    30    32    33    1
    31    32    34    1
    32    34    35    1
    33    35    36    1
    34    36    37    1
    35    36    38    1
    36     6     1   ar
    37    20    15   ar
    38    29    21    1
    39    29    24    1
    40     9    10    1
    41    13    14    1
@<TRIPOS>MOLECULE
*****
 38 41 0 0 0
SMALL
GASTEIGER

@<TRIPOS>ATOM
      1 C         139.8372  138.7215  159.0641 C.ar    1  UNL1        0.0655
      2 C         139.1442  138.3706  160.3473 C.ar    1  UNL1        0.0337
      3 C         139.9495  138.0126  161.5612 C.ar    1  UNL1        0.0862
      4 C         141.4479  138.0054  161.4917 C.ar    1  UNL1        0.1534
      5 C         142.1410  138.3564  160.2085 C.ar    1  UNL1        0.0539
      6 C         141.3356  138.7144  158.9947 C.ar    1  UNL1        0.0647
      7 C         138.5286  140.4811  157.6710 C.2     1  UNL1        0.2497
      8 O         138.6800  141.3265  158.3478 O.2     1  UNL1       -0.2698
      9 N         139.0319  139.0795  157.8504 N.am    1  UNL1       -0.2794
     10 H         138.8336  138.3946  157.1715 H       1  UNL1        0.1552
     11 C         136.2416  141.0424  156.5733 C.2     1  UNL1        0.0048
     12 C         137.7232  140.8392  156.4572 C.2     1  UNL1        0.0580
     13 N         139.2565  137.6617  162.8443 N.pl3   1  UNL1       -0.2801
     14 H         138.8303  136.7803  162.9485 H       1  UNL1        0.1552
     15 C         139.2127  138.6535  163.9687 C.ar    1  UNL1        0.2207
     16 N         138.8760  138.1983  165.3577 N.ar    1  UNL1       -0.2120
     17 C         138.8322  139.1901  166.4821 C.ar    1  UNL1        0.1034
     18 C         139.1250  140.6373  166.2174 C.ar    1  UNL1        0.0400
     19 C         139.4617  141.0926  164.8283 C.ar    1  UNL1        0.0873
     20 N         139.5055  140.1007  163.7040 N.ar    1  UNL1       -0.2135
     21 C         139.7545  142.5397  164.5637 C.2     1  UNL1        0.0380
     22 C         138.7426  143.6443  164.4866 C.2     1  UNL1        0.0999
     23 N         139.4734  144.9236  164.2050 N.2     1  UNL1       -0.2478
     24 C         140.9370  144.6097  164.1080 C.2     1  UNL1        0.0634
     25 C         142.1339  145.4750  163.8464 C.3     1  UNL1        0.0717
     26 C         143.5046  144.8671  163.8065 C.2     1  UNL1       -0.0198
     27 C         143.6783  143.3938  164.0282 C.2     1  UNL1       -0.0041
     28 C         142.4814  142.5284  164.2898 C.2     1  UNL1        0.0010
     29 C         141.1107  143.1363  164.3297 C.2     1  UNL1        0.0168
     30 O         142.2533  137.6474  162.7055 O.3     1  UNL1       -0.4701
     31 C         142.9728  138.7182  163.4708 C.3     1  UNL1        0.2525
     32 N         142.0287  139.0653  157.7116 N.pl3   1  UNL1       -0.3033
     33 C         142.5452  140.0002  157.4769 C.3     1  UNL1        0.1123
     34 C         142.0592  138.0793  156.5816 C.3     1  UNL1        0.1082
     35 C         142.0019  136.6081  156.8683 C.3     1  UNL1        0.0938
     36 N         143.1864  135.7386  156.5669 N.3     1  UNL1       -0.2688
     37 C         144.1719  136.1520  155.5143 C.3     1  UNL1        0.0897
     38 C         143.3856  134.4556  157.3180 C.3     1  UNL1        0.0897
@<TRIPOS>BOND
     1    11    12    2
     2    12     7    1
     3     7     8    2
     4     7     9   am
     5     9     1    1
     6     1     2   ar
     7     2     3   ar
     8     3    13    1
     9    13    15    1
    10    15    16   ar
    11    16    17   ar
    12    17    18   ar
    13    18    19   ar
    14    19    21    1
    15    21    22    2
    16    22    23    1
    17    23    24    2
    18    24    25    1
    19    25    26    1
    20    26    27    2
    21    27    28    1
    22    28    29    2
    23    19    20   ar
    24     3     4   ar
    25     4    30    1
    26    30    31    1
    27     4     5   ar
    28     5     6   ar
    29     6    32    1
    30    32    33    1
    31    32    34    1
    32    34    35    1
    33    35    36    1
    34    36    37    1
    35    36    38    1
    36     6     1   ar
    37    20    15   ar
    38    29    21    1
    39    29    24    1
    40     9    10    1
    41    13    14    1
@<TRIPOS>MOLECULE
*****
 38 41 0 0 0
SMALL
GASTEIGER

@<TRIPOS>ATOM
      1 C         138.8116  140.2519  158.9121 C.ar    1  UNL1        0.0655
      2 C         138.1658  140.8502  160.1265 C.ar    1  UNL1        0.0337
      3 C         138.1929  140.1111  161.4316 C.ar    1  UNL1        0.0862
      4 C         138.8658  138.7736  161.5221 C.ar    1  UNL1        0.1534
      5 C         139.5117  138.1752  160.3076 C.ar    1  UNL1        0.0539
      6 C         139.4846  138.9144  159.0026 C.ar    1  UNL1        0.0647
      7 C         137.5464  140.9729  156.7606 C.2     1  UNL1        0.2497
      8 O         136.6053  140.4619  156.9817 O.2     1  UNL1       -0.2698
      9 N         138.7845  140.9911  157.6071 N.am    1  UNL1       -0.2794
     10 H         139.5793  141.4881  157.3063 H       1  UNL1        0.1552
     11 C         136.2078  142.0273  154.7993 C.2     1  UNL1        0.0048
     12 C         137.5192  141.7120  155.4556 C.2     1  UNL1        0.0580
     13 N         137.5470  140.7095  162.6459 N.pl3   1  UNL1       -0.2801
     14 H         136.6899  140.3529  162.9738 H       1  UNL1        0.1552
     15 C         138.2069  141.8512  163.3608 C.ar    1  UNL1        0.2207
     16 N         137.3794  142.8167  164.1564 N.ar    1  UNL1       -0.2120
     17 C         138.0393  143.9584  164.8712 C.ar    1  UNL1        0.1034
     18 C         139.5268  144.1346  164.7904 C.ar    1  UNL1        0.0400
     19 C         140.3543  143.1690  163.9948 C.ar    1  UNL1        0.0873
     20 N         139.6944  142.0274  163.2800 N.ar    1  UNL1       -0.2135
     21 C         141.8417  143.3453  163.9140 C.2     1  UNL1        0.0380
     22 C         142.5672  144.6464  163.7388 C.2     1  UNL1        0.0999
     23 N         144.0387  144.3565  163.7108 N.2     1  UNL1       -0.2478
     24 C         144.2226  142.8762  163.8686 C.2     1  UNL1        0.0634
     25 C         145.4510  142.0166  163.9141 C.3     1  UNL1        0.0717
     26 C         145.3216  140.5321  164.0853 C.2     1  UNL1       -0.0198
     27 C         143.9638  139.9071  164.2109 C.2     1  UNL1       -0.0041
     28 C         142.7354  140.7667  164.1653 C.2     1  UNL1        0.0010
     29 C         142.8648  142.2512  163.9942 C.2     1  UNL1        0.0168
     30 O         138.8929  138.0344  162.8270 O.3     1  UNL1       -0.4701
     31 C         140.1028  138.1155  163.7099 C.3     1  UNL1        0.2525
     32 N         140.1304  138.3160  157.7882 N.pl3   1  UNL1       -0.3033
     33 C         139.6699  137.6374  157.0648 C.3     1  UNL1        0.1123
     34 C         141.5597  138.6356  157.4645 C.3     1  UNL1        0.1082
     35 C         142.6683  137.9437  158.2010 C.3     1  UNL1        0.0938
     36 N         143.2518  138.5660  159.4347 N.3     1  UNL1       -0.2688
     37 C         143.3171  137.7815  160.7115 C.3     1  UNL1        0.0897
     38 C         143.7701  139.9730  159.3917 C.3     1  UNL1        0.0897
@<TRIPOS>BOND
     1    11    12    2
     2    12     7    1
     3     7     8    2
     4     7     9   am
     5     9     1    1
     6     1     2   ar
     7     2     3   ar
     8     3    13    1
     9    13    15    1
    10    15    16   ar
    11    16    17   ar
    12    17    18   ar
    13    18    19   ar
    14    19    21    1
    15    21    22    2
    16    22    23    1
    17    23    24    2
    18    24    25    1
    19    25    26    1
    20    26    27    2
    21    27    28    1
    22    28    29    2
    23    19    20   ar
    24     3     4   ar
    25     4    30    1
    26    30    31    1
    27     4     5   ar
    28     5     6   ar
    29     6    32    1
    30    32    33    1
    31    32    34    1
    32    34    35    1
    33    35    36    1
    34    36    37    1
    35    36    38    1
    36     6     1   ar
    37    20    15   ar
    38    29    21    1
    39    29    24    1
    40     9    10    1
    41    13    14    1
@<TRIPOS>MOLECULE
*****
 38 41 0 0 0
SMALL
GASTEIGER

@<TRIPOS>ATOM
      1 C         140.1679  137.6117  157.3229 C.ar    1  UNL1        0.0655
      2 C         139.7383  138.3451  158.5588 C.ar    1  UNL1        0.0337
      3 C         140.7638  138.8088  159.5505 C.ar    1  UNL1        0.0862
      4 C         142.2189  138.5389  159.3062 C.ar    1  UNL1        0.1534
      5 C         142.6486  137.8054  158.0702 C.ar    1  UNL1        0.0539
      6 C         141.6230  137.3418  157.0786 C.ar    1  UNL1        0.0647
      7 C         138.8239  137.9910  155.1321 C.2     1  UNL1        0.2497
      8 O         139.2665  138.9558  154.8695 O.2     1  UNL1       -0.2698
      9 N         139.1423  137.1481  156.3313 N.am    1  UNL1       -0.2794
     10 H         138.6782  136.2906  156.4675 H       1  UNL1        0.1552
     11 C         136.4266  138.1344  154.1407 C.2     1  UNL1        0.0048
     12 C         137.7983  137.5275  154.1405 C.2     1  UNL1        0.0580
     13 N         140.3341  139.5422  160.7864 N.pl3   1  UNL1       -0.2801
     14 H         139.8278  140.3830  160.7088 H       1  UNL1        0.1552
     15 C         140.6757  138.9947  162.1404 C.ar    1  UNL1        0.2207
     16 N         140.6346  137.5150  162.3833 N.ar    1  UNL1       -0.2120
     17 C         140.9763  136.9675  163.7373 C.ar    1  UNL1        0.1034
     18 C         141.3590  137.8996  164.8485 C.ar    1  UNL1        0.0400
     19 C         141.4001  139.3793  164.6056 C.ar    1  UNL1        0.0873
     20 N         141.0585  139.9268  163.2516 N.ar    1  UNL1       -0.2135
     21 C         141.7828  140.3114  165.7168 C.2     1  UNL1        0.0380
     22 C         142.9758  141.2206  165.7335 C.2     1  UNL1        0.0999
     23 N         142.9700  141.9690  167.0334 N.2     1  UNL1       -0.2478
     24 C         141.7735  141.5224  167.8201 C.2     1  UNL1        0.0634
     25 C         141.2573  141.9162  169.1723 C.3     1  UNL1        0.0717
     26 C         140.0074  141.2856  169.7108 C.2     1  UNL1       -0.0198
     27 C         139.2737  140.2611  168.8971 C.2     1  UNL1       -0.0041
     28 C         139.7899  139.8673  167.5449 C.2     1  UNL1        0.0010
     29 C         141.0398  140.4979  167.0064 C.2     1  UNL1        0.0168
     30 O         143.2445  139.0025  160.2978 O.3     1  UNL1       -0.4701
     31 C         144.0018  138.0004  161.1177 C.3     1  UNL1        0.2525
     32 N         142.0527  136.6084  155.8427 N.pl3   1  UNL1       -0.3033
     33 C         142.4648  137.0445  154.9285 C.3     1  UNL1        0.1123
     34 C         141.9350  135.1144  155.7781 C.3     1  UNL1        0.1082
     35 C         143.1259  134.2840  155.4013 C.3     1  UNL1        0.0938
     36 N         143.8110  133.4421  156.4366 N.3     1  UNL1       -0.2688
     37 C         143.7741  133.8501  157.8795 C.3     1  UNL1        0.0897
     38 C         144.5332  132.1922  156.0289 C.3     1  UNL1        0.0897
@<TRIPOS>BOND
     1    11    12    2
     2    12     7    1
     3     7     8    2
     4     7     9   am
     5     9     1    1
     6     1     2   ar
     7     2     3   ar
     8     3    13    1
     9    13    15    1
    10    15    16   ar
    11    16    17   ar
    12    17    18   ar
    13    18    19   ar
    14    19    21    1
    15    21    22    2
    16    22    23    1
    17    23    24    2
    18    24    25    1
    19    25    26    1
    20    26    27    2
    21    27    28    1
    22    28    29    2
    23    19    20   ar
    24     3     4   ar
    25     4    30    1
    26    30    31    1
    27     4     5   ar
    28     5     6   ar
    29     6    32    1
    30    32    33    1
    31    32    34    1
    32    34    35    1
    33    35    36    1
    34    36    37    1
    35    36    38    1
    36     6     1   ar
    37    20    15   ar
    38    29    21    1
    39    29    24    1
    40     9    10    1
    41    13    14    1
@<TRIPOS>MOLECULE
*****
 38 41 0 0 0
SMALL
GASTEIGER

@<TRIPOS>ATOM
      1 C         139.6190  139.0243  159.0421 C.ar    1  UNL1        0.0655
      2 C         139.0631  138.5674  160.3582 C.ar    1  UNL1        0.0337
      3 C         139.9892  138.1044  161.4435 C.ar    1  UNL1        0.0862
      4 C         141.4714  138.0984  161.2127 C.ar    1  UNL1        0.1534
      5 C         142.0273  138.5553  159.8965 C.ar    1  UNL1        0.0539
      6 C         141.1011  139.0183  158.8112 C.ar    1  UNL1        0.0647
      7 C         138.0833  140.8562  158.0244 C.2     1  UNL1        0.2497
      8 O         138.2337  141.6057  158.8062 O.2     1  UNL1       -0.2698
      9 N         138.6928  139.4873  157.9568 N.am    1  UNL1       -0.2794
     10 H         138.4849  138.8927  157.2002 H       1  UNL1        0.1552
     11 C         137.1699  142.7547  156.5039 C.2     1  UNL1        0.0048
     12 C         137.1571  141.3193  156.9392 C.2     1  UNL1        0.0580
     13 N         139.4333  137.6476  162.7596 N.pl3   1  UNL1       -0.2801
     14 H         139.1417  136.7141  162.8734 H       1  UNL1        0.1552
     15 C         139.3215  138.6128  163.9023 C.ar    1  UNL1        0.2207
     16 N         138.9267  138.1212  165.2634 N.ar    1  UNL1       -0.2120
     17 C         138.8149  139.0864  166.4061 C.ar    1  UNL1        0.1034
     18 C         139.0980  140.5432  166.1878 C.ar    1  UNL1        0.0400
     19 C         139.4929  141.0348  164.8267 C.ar    1  UNL1        0.0873
     20 N         139.6046  140.0696  163.6840 N.ar    1  UNL1       -0.2135
     21 C         139.7760  142.4916  164.6084 C.2     1  UNL1        0.0380
     22 C         138.7703  143.6031  164.6638 C.2     1  UNL1        0.0999
     23 N         139.4873  144.8911  164.3860 N.2     1  UNL1       -0.2478
     24 C         140.9361  144.5755  164.1589 C.2     1  UNL1        0.0634
     25 C         142.1158  145.4469  163.8448 C.3     1  UNL1        0.0717
     26 C         143.4740  144.8353  163.6681 C.2     1  UNL1       -0.0198
     27 C         143.6524  143.3523  163.8056 C.2     1  UNL1       -0.0041
     28 C         142.4727  142.4809  164.1197 C.2     1  UNL1        0.0010
     29 C         141.1145  143.0925  164.2964 C.2     1  UNL1        0.0168
     30 O         142.3976  137.6354  162.2979 O.3     1  UNL1       -0.4701
     31 C         143.0603  138.6372  163.1964 C.3     1  UNL1        0.2525
     32 N         141.6571  139.4752  157.4951 N.pl3   1  UNL1       -0.3033
     33 C         141.9881  138.8439  156.6657 C.3     1  UNL1        0.1123
     34 C         141.8056  140.9406  157.2118 C.3     1  UNL1        0.1082
     35 C         142.4077  141.8469  158.2443 C.3     1  UNL1        0.0938
     36 N         141.5190  142.6471  159.1497 N.3     1  UNL1       -0.2688
     37 C         140.8371  143.8795  158.6339 C.3     1  UNL1        0.0897
     38 C         141.3122  142.2149  160.5712 C.3     1  UNL1        0.0897
@<TRIPOS>BOND
     1    11    12    2
     2    12     7    1
     3     7     8    2
     4     7     9   am
     5     9     1    1
     6     1     2   ar
     7     2     3   ar
     8     3    13    1
     9    13    15    1
    10    15    16   ar
    11    16    17   ar
    12    17    18   ar
    13    18    19   ar
    14    19    21    1
    15    21    22    2
    16    22    23    1
    17    23    24    2
    18    24    25    1
    19    25    26    1
    20    26    27    2
    21    27    28    1
    22    28    29    2
    23    19    20   ar
    24     3     4   ar
    25     4    30    1
    26    30    31    1
    27     4     5   ar
    28     5     6   ar
    29     6    32    1
    30    32    33    1
    31    32    34    1
    32    34    35    1
    33    35    36    1
    34    36    37    1
    35    36    38    1
    36     6     1   ar
    37    20    15   ar
    38    29    21    1
    39    29    24    1
    40     9    10    1
    41    13    14    1
