@<TRIPOS>MOLECULE
*****
 28 32 0 0 0
SMALL
GASTEIGER

@<TRIPOS>ATOM
      1 C         141.3642  141.3481  167.3428 C.ar    1  UNL1        0.0192
      2 C         140.2775  140.5540  166.6806 C.ar    1  UNL1        0.0801
      3 N         140.5412  140.5493  165.2040 N.ar    1  UNL1       -0.3035
      4 C         141.7908  141.3403  164.9536 C.ar    1  UNL1        0.0832
      5 C         142.5312  141.6749  163.6927 C.ar    1  UNL1        0.1163
      6 N         143.7802  142.5032  163.7538 N.ar    1  UNL1       -0.2408
      7 C         144.2889  142.9969  165.0757 C.ar    1  UNL1        0.0990
      8 C         143.5485  142.6623  166.3366 C.ar    1  UNL1        0.0222
      9 C         142.2994  141.8340  166.2755 C.ar    1  UNL1        0.0206
     10 C         142.4811  143.0007  170.7738 C.ar    1  UNL1        0.1342
     11 C         142.3523  142.7386  169.3025 C.ar    1  UNL1        0.0345
     12 C         141.4930  141.6102  168.8141 C.ar    1  UNL1        0.0058
     13 C         140.7627  140.7440  169.7971 C.ar    1  UNL1        0.0208
     14 C         140.8915  141.0061  171.2684 C.ar    1  UNL1        0.1003
     15 N         141.7508  142.1345  171.7567 N.ar    1  UNL1       -0.2290
     16 O         145.4355  142.9699  170.2538 O.2     1  UNL1       -0.2748
     17 C         144.8175  144.1137  171.0021 C.2     1  UNL1        0.2267
     18 N         143.3403  144.1291  171.2621 N.am    1  UNL1       -0.2694
     19 H         142.9348  144.8798  171.7532 H       1  UNL1        0.1563
     20 C         145.6769  145.2421  171.4904 C.3     1  UNL1        0.0769
     21 C         145.9172  146.7130  171.6587 C.3     1  UNL1        0.0096
     22 C         146.9249  145.7255  172.1677 C.3     1  UNL1        0.0096
     23 C         139.7024  139.8722  164.1608 C.ar    1  UNL1        0.0641
     24 C         139.7107  138.3765  164.0464 C.ar    1  UNL1        0.0175
     25 C         138.8720  137.6995  163.0032 C.ar    1  UNL1        0.0015
     26 C         138.0251  138.5181  162.0744 C.ar    1  UNL1        0.0001
     27 C         138.0169  140.0137  162.1888 C.ar    1  UNL1        0.0015
     28 C         138.8556  140.6907  163.2320 C.ar    1  UNL1        0.0175
@<TRIPOS>BOND
     1    16    17    2
     2    17    18   am
     3    18    10    1
     4    10    11   ar
     5    11    12   ar
     6    12     1    1
     7     1     2   ar
     8     2     3   ar
     9     3    23    1
    10    23    24   ar
    11    24    25   ar
    12    25    26   ar
    13    26    27   ar
    14    27    28   ar
    15     3     4   ar
    16     4     5   ar
    17     5     6   ar
    18     6     7   ar
    19     7     8   ar
    20     8     9   ar
    21    12    13   ar
    22    13    14   ar
    23    14    15   ar
    24    17    20    1
    25    20    21    1
    26    21    22    1
    27    15    10   ar
    28    22    20    1
    29     9     1   ar
    30    28    23   ar
    31     9     4   ar
    32    18    19    1
@<TRIPOS>MOLECULE
*****
 28 32 0 0 0
SMALL
GASTEIGER

@<TRIPOS>ATOM
      1 C         140.4726  141.9940  167.4084 C.ar    1  UNL1        0.0192
      2 C         140.7595  143.0718  166.4055 C.ar    1  UNL1        0.0801
      3 N         140.1449  142.6648  165.0991 N.ar    1  UNL1       -0.3035
      4 C         139.4782  141.3354  165.2946 C.ar    1  UNL1        0.0832
      5 C         138.7129  140.4489  164.3575 C.ar    1  UNL1        0.1163
      6 N         138.1501  139.1478  164.8476 N.ar    1  UNL1       -0.2408
      7 C         138.3526  138.7332  166.2749 C.ar    1  UNL1        0.0990
      8 C         139.1179  139.6197  167.2120 C.ar    1  UNL1        0.0222
      9 C         139.6807  140.9208  166.7219 C.ar    1  UNL1        0.0206
     10 C         142.2991  143.0193  170.7794 C.ar    1  UNL1        0.1342
     11 C         141.8695  143.0233  169.3422 C.ar    1  UNL1        0.0345
     12 C         140.9021  141.9900  168.8456 C.ar    1  UNL1        0.0058
     13 C         140.3644  140.9527  169.7862 C.ar    1  UNL1        0.0208
     14 C         140.7940  140.9487  171.2234 C.ar    1  UNL1        0.1003
     15 N         141.7613  141.9820  171.7200 N.ar    1  UNL1       -0.2290
     16 O         145.1919  142.8624  170.0008 O.2     1  UNL1       -0.2748
     17 C         144.7128  143.9741  170.8866 C.2     1  UNL1        0.2267
     18 N         143.2664  144.0526  171.2759 N.am    1  UNL1       -0.2694
     19 H         142.9519  144.7822  171.8572 H       1  UNL1        0.1563
     20 C         145.6803  145.0075  171.3830 C.3     1  UNL1        0.0769
     21 C         147.0495  145.3764  171.8717 C.3     1  UNL1        0.0096
     22 C         145.9865  146.4282  171.7542 C.3     1  UNL1        0.0096
     23 C         140.1893  143.4494  163.8214 C.ar    1  UNL1        0.0641
     24 C         139.4019  144.7198  163.6937 C.ar    1  UNL1        0.0175
     25 C         139.4462  145.5044  162.4160 C.ar    1  UNL1        0.0015
     26 C         140.2780  145.0187  161.2661 C.ar    1  UNL1        0.0001
     27 C         141.0654  143.7484  161.3939 C.ar    1  UNL1        0.0015
     28 C         141.0210  142.9638  162.6715 C.ar    1  UNL1        0.0175
@<TRIPOS>BOND
     1    16    17    2
     2    17    18   am
     3    18    10    1
     4    10    11   ar
     5    11    12   ar
     6    12     1    1
     7     1     2   ar
     8     2     3   ar
     9     3    23    1
    10    23    24   ar
    11    24    25   ar
    12    25    26   ar
    13    26    27   ar
    14    27    28   ar
    15     3     4   ar
    16     4     5   ar
    17     5     6   ar
    18     6     7   ar
    19     7     8   ar
    20     8     9   ar
    21    12    13   ar
    22    13    14   ar
    23    14    15   ar
    24    17    20    1
    25    20    21    1
    26    21    22    1
    27    15    10   ar
    28    22    20    1
    29     9     1   ar
    30    28    23   ar
    31     9     4   ar
    32    18    19    1
@<TRIPOS>MOLECULE
*****
 28 32 0 0 0
SMALL
GASTEIGER

@<TRIPOS>ATOM
      1 C         141.1792  141.3696  167.4106 C.ar    1  UNL1        0.0192
      2 C         140.2421  142.1010  166.4958 C.ar    1  UNL1        0.0801
      3 N         140.3884  141.5193  165.1209 N.ar    1  UNL1       -0.3035
      4 C         141.4159  140.4284  165.1861 C.ar    1  UNL1        0.0832
      5 C         141.9697  139.5074  164.1396 C.ar    1  UNL1        0.1163
      6 N         143.0122  138.4939  164.5083 N.ar    1  UNL1       -0.2408
      7 C         143.5009  138.4014  165.9234 C.ar    1  UNL1        0.0990
      8 C         142.9472  139.3225  166.9699 C.ar    1  UNL1        0.0222
      9 C         141.9047  140.3359  166.6012 C.ar    1  UNL1        0.0206
     10 C         142.4337  142.9960  170.8064 C.ar    1  UNL1        0.1342
     11 C         142.2537  142.7388  169.3397 C.ar    1  UNL1        0.0345
     12 C         141.3593  141.6268  168.8774 C.ar    1  UNL1        0.0058
     13 C         140.6450  140.7721  169.8820 C.ar    1  UNL1        0.0208
     14 C         140.8251  141.0292  171.3487 C.ar    1  UNL1        0.1003
     15 N         141.7194  142.1412  171.8110 N.ar    1  UNL1       -0.2290
     16 O         145.3698  142.9112  170.1966 O.2     1  UNL1       -0.2748
     17 C         144.7961  144.0655  170.9637 C.2     1  UNL1        0.2267
     18 N         143.3280  144.1080  171.2686 N.am    1  UNL1       -0.2694
     19 H         142.9515  144.8656  171.7720 H       1  UNL1        0.1563
     20 C         145.6906  145.1776  171.4258 C.3     1  UNL1        0.0769
     21 C         146.9995  145.6413  171.9928 C.3     1  UNL1        0.0096
     22 C         145.9308  146.6397  171.6592 C.3     1  UNL1        0.0096
     23 C         139.6388  141.9524  163.8960 C.ar    1  UNL1        0.0641
     24 C         139.9976  143.2387  163.2128 C.ar    1  UNL1        0.0175
     25 C         139.2480  143.6718  161.9878 C.ar    1  UNL1        0.0015
     26 C         138.1396  142.8187  161.4460 C.ar    1  UNL1        0.0001
     27 C         137.7808  141.5324  162.1292 C.ar    1  UNL1        0.0015
     28 C         138.5304  141.0993  163.3542 C.ar    1  UNL1        0.0175
@<TRIPOS>BOND
     1    16    17    2
     2    17    18   am
     3    18    10    1
     4    10    11   ar
     5    11    12   ar
     6    12     1    1
     7     1     2   ar
     8     2     3   ar
     9     3    23    1
    10    23    24   ar
    11    24    25   ar
    12    25    26   ar
    13    26    27   ar
    14    27    28   ar
    15     3     4   ar
    16     4     5   ar
    17     5     6   ar
    18     6     7   ar
    19     7     8   ar
    20     8     9   ar
    21    12    13   ar
    22    13    14   ar
    23    14    15   ar
    24    17    20    1
    25    20    21    1
    26    21    22    1
    27    15    10   ar
    28    22    20    1
    29     9     1   ar
    30    28    23   ar
    31     9     4   ar
    32    18    19    1
@<TRIPOS>MOLECULE
*****
 28 32 0 0 0
SMALL
GASTEIGER

@<TRIPOS>ATOM
      1 C         141.6184  141.4721  167.2198 C.ar    1  UNL1        0.0192
      2 C         142.3448  140.4162  166.4404 C.ar    1  UNL1        0.0801
      3 N         141.9734  140.5691  164.9952 N.ar    1  UNL1       -0.3035
      4 C         141.0174  141.7194  164.8814 C.ar    1  UNL1        0.0832
      5 C         140.3184  142.3308  163.7035 C.ar    1  UNL1        0.1163
      6 N         139.4000  143.5002  163.9005 N.ar    1  UNL1       -0.2408
      7 C         139.1806  144.0583  165.2754 C.ar    1  UNL1        0.0990
      8 C         139.8797  143.4470  166.4533 C.ar    1  UNL1        0.0222
      9 C         140.7981  142.2775  166.2563 C.ar    1  UNL1        0.0206
     10 C         142.5856  143.0358  170.7369 C.ar    1  UNL1        0.1342
     11 C         142.5056  142.8227  169.2543 C.ar    1  UNL1        0.0345
     12 C         141.6983  141.6851  168.7025 C.ar    1  UNL1        0.0058
     13 C         140.9711  140.7608  169.6333 C.ar    1  UNL1        0.0208
     14 C         141.0510  140.9739  171.1160 C.ar    1  UNL1        0.1003
     15 N         141.8582  142.1114  171.6678 N.ar    1  UNL1       -0.2290
     16 O         145.5429  143.1523  170.2472 O.2     1  UNL1       -0.2748
     17 C         144.8715  144.2315  171.0437 C.2     1  UNL1        0.2267
     18 N         143.3928  144.1733  171.2886 N.am    1  UNL1       -0.2694
     19 H         142.9521  144.8816  171.8114 H       1  UNL1        0.1563
     20 C         145.6789  145.3691  171.5954 C.3     1  UNL1        0.0769
     21 C         146.7829  145.8701  172.4785 C.3     1  UNL1        0.0096
     22 C         145.9732  146.8381  171.6678 C.3     1  UNL1        0.0096
     23 C         142.4705  139.7206  163.8626 C.ar    1  UNL1        0.0641
     24 C         143.8146  139.9934  163.2549 C.ar    1  UNL1        0.0175
     25 C         144.3118  139.1449  162.1223 C.ar    1  UNL1        0.0015
     26 C         143.4650  138.0236  161.5973 C.ar    1  UNL1        0.0001
     27 C         142.1210  137.7508  162.2049 C.ar    1  UNL1        0.0015
     28 C         141.6238  138.5993  163.3375 C.ar    1  UNL1        0.0175
@<TRIPOS>BOND
     1    16    17    2
     2    17    18   am
     3    18    10    1
     4    10    11   ar
     5    11    12   ar
     6    12     1    1
     7     1     2   ar
     8     2     3   ar
     9     3    23    1
    10    23    24   ar
    11    24    25   ar
    12    25    26   ar
    13    26    27   ar
    14    27    28   ar
    15     3     4   ar
    16     4     5   ar
    17     5     6   ar
    18     6     7   ar
    19     7     8   ar
    20     8     9   ar
    21    12    13   ar
    22    13    14   ar
    23    14    15   ar
    24    17    20    1
    25    20    21    1
    26    21    22    1
    27    15    10   ar
    28    22    20    1
    29     9     1   ar
    30    28    23   ar
    31     9     4   ar
    32    18    19    1
@<TRIPOS>MOLECULE
*****
 28 32 0 0 0
SMALL
GASTEIGER

@<TRIPOS>ATOM
      1 C         140.8876  142.2746  164.6344 C.ar    1  UNL1        0.0192
      2 C         141.0209  142.3056  166.1282 C.ar    1  UNL1        0.0801
      3 N         141.9332  141.1868  166.5355 N.ar    1  UNL1       -0.3035
      4 C         142.3637  140.4642  165.2935 C.ar    1  UNL1        0.0832
      5 C         143.2607  139.2810  165.0806 C.ar    1  UNL1        0.1163
      6 N         143.5115  138.7700  163.6928 N.ar    1  UNL1       -0.2408
      7 C         142.8653  139.4423  162.5179 C.ar    1  UNL1        0.0990
      8 C         141.9683  140.6256  162.7308 C.ar    1  UNL1        0.0222
      9 C         141.7176  141.1365  164.1186 C.ar    1  UNL1        0.0206
     10 C         139.8522  144.8092  161.7615 C.ar    1  UNL1        0.1342
     11 C         140.6715  143.8675  162.5933 C.ar    1  UNL1        0.0345
     12 C         140.0683  143.2162  163.8026 C.ar    1  UNL1        0.0058
     13 C         138.6459  143.5066  164.1797 C.ar    1  UNL1        0.0208
     14 C         137.8266  144.4482  163.3479 C.ar    1  UNL1        0.1003
     15 N         138.4297  145.0995  162.1387 N.ar    1  UNL1       -0.2290
     16 O         139.3006  143.7011  159.0288 O.2     1  UNL1       -0.2748
     17 C         140.1796  144.9064  159.1860 C.2     1  UNL1        0.2267
     18 N         140.4554  145.4604  160.5524 N.am    1  UNL1       -0.2694
     19 H         141.0323  146.2515  160.6555 H       1  UNL1        0.1563
     20 C         140.7828  145.5576  157.9768 C.3     1  UNL1        0.0769
     21 C         140.6190  146.2924  156.6795 C.3     1  UNL1        0.0096
     22 C         141.9912  145.9507  157.1798 C.3     1  UNL1        0.0096
     23 C         142.3429  140.8496  167.9385 C.ar    1  UNL1        0.0641
     24 C         143.0674  141.8644  168.7726 C.ar    1  UNL1        0.0175
     25 C         143.4772  141.5272  170.1756 C.ar    1  UNL1        0.0015
     26 C         143.1626  140.1754  170.7445 C.ar    1  UNL1        0.0001
     27 C         142.4382  139.1608  169.9104 C.ar    1  UNL1        0.0015
     28 C         142.0284  139.4979  168.5074 C.ar    1  UNL1        0.0175
@<TRIPOS>BOND
     1    16    17    2
     2    17    18   am
     3    18    10    1
     4    10    11   ar
     5    11    12   ar
     6    12     1    1
     7     1     2   ar
     8     2     3   ar
     9     3    23    1
    10    23    24   ar
    11    24    25   ar
    12    25    26   ar
    13    26    27   ar
    14    27    28   ar
    15     3     4   ar
    16     4     5   ar
    17     5     6   ar
    18     6     7   ar
    19     7     8   ar
    20     8     9   ar
    21    12    13   ar
    22    13    14   ar
    23    14    15   ar
    24    17    20    1
    25    20    21    1
    26    21    22    1
    27    15    10   ar
    28    22    20    1
    29     9     1   ar
    30    28    23   ar
    31     9     4   ar
    32    18    19    1
@<TRIPOS>MOLECULE
*****
 28 32 0 0 0
SMALL
GASTEIGER

@<TRIPOS>ATOM
      1 C         141.6591  142.5480  164.0879 C.ar    1  UNL1        0.0192
      2 C         141.4966  142.5066  165.5785 C.ar    1  UNL1        0.0801
      3 N         142.4434  141.4766  166.1195 N.ar    1  UNL1       -0.3035
      4 C         143.1909  140.8813  164.9633 C.ar    1  UNL1        0.0832
      5 C         144.2504  139.8219  164.8916 C.ar    1  UNL1        0.1163
      6 N         144.8251  139.4247  163.5642 N.ar    1  UNL1       -0.2408
      7 C         144.3404  140.0869  162.3086 C.ar    1  UNL1        0.0990
      8 C         143.2809  141.1463  162.3803 C.ar    1  UNL1        0.0222
      9 C         142.7062  141.5435  163.7077 C.ar    1  UNL1        0.0206
     10 C         139.2477  143.7273  161.1647 C.ar    1  UNL1        0.1342
     11 C         140.0003  142.8377  162.1093 C.ar    1  UNL1        0.0345
     12 C         140.9065  143.4376  163.1433 C.ar    1  UNL1        0.0058
     13 C         141.0600  144.9269  163.2327 C.ar    1  UNL1        0.0208
     14 C         140.3074  145.8166  162.2881 C.ar    1  UNL1        0.1003
     15 N         139.4013  145.2168  161.2541 N.ar    1  UNL1       -0.2290
     16 O         140.2863  143.1591  158.4083 O.2     1  UNL1       -0.2748
     17 C         138.8609  142.8433  158.7526 C.2     1  UNL1        0.2267
     18 N         138.3416  143.1275  160.1308 N.am    1  UNL1       -0.2694
     19 H         137.4061  142.9202  160.3568 H       1  UNL1        0.1563
     20 C         137.9548  142.2434  157.7185 C.3     1  UNL1        0.0769
     21 C         137.2392  141.0533  157.1517 C.3     1  UNL1        0.0096
     22 C         137.1012  142.3945  156.4944 C.3     1  UNL1        0.0096
     23 C         142.6129  141.1067  167.5633 C.ar    1  UNL1        0.0641
     24 C         143.1457  142.1146  168.5382 C.ar    1  UNL1        0.0175
     25 C         143.3152  141.7447  169.9820 C.ar    1  UNL1        0.0015
     26 C         142.9519  140.3670  170.4509 C.ar    1  UNL1        0.0001
     27 C         142.4191  139.3592  169.4760 C.ar    1  UNL1        0.0015
     28 C         142.2496  139.7291  168.0322 C.ar    1  UNL1        0.0175
@<TRIPOS>BOND
     1    16    17    2
     2    17    18   am
     3    18    10    1
     4    10    11   ar
     5    11    12   ar
     6    12     1    1
     7     1     2   ar
     8     2     3   ar
     9     3    23    1
    10    23    24   ar
    11    24    25   ar
    12    25    26   ar
    13    26    27   ar
    14    27    28   ar
    15     3     4   ar
    16     4     5   ar
    17     5     6   ar
    18     6     7   ar
    19     7     8   ar
    20     8     9   ar
    21    12    13   ar
    22    13    14   ar
    23    14    15   ar
    24    17    20    1
    25    20    21    1
    26    21    22    1
    27    15    10   ar
    28    22    20    1
    29     9     1   ar
    30    28    23   ar
    31     9     4   ar
    32    18    19    1
@<TRIPOS>MOLECULE
*****
 28 32 0 0 0
SMALL
GASTEIGER

@<TRIPOS>ATOM
      1 C         141.0241  142.3888  164.6229 C.ar    1  UNL1        0.0192
      2 C         141.0624  142.3407  166.1216 C.ar    1  UNL1        0.0801
      3 N         142.0583  141.2946  166.5264 N.ar    1  UNL1       -0.3035
      4 C         142.6354  140.6962  165.2779 C.ar    1  UNL1        0.0832
      5 C         143.6603  139.6228  165.0602 C.ar    1  UNL1        0.1163
      6 N         144.0461  139.2258  163.6662 N.ar    1  UNL1       -0.2408
      7 C         143.4068  139.9021  162.4897 C.ar    1  UNL1        0.0990
      8 C         142.3819  140.9754  162.7073 C.ar    1  UNL1        0.0222
      9 C         141.9962  141.3725  164.1014 C.ar    1  UNL1        0.0206
     10 C         139.8704  144.8536  161.7342 C.ar    1  UNL1        0.1342
     11 C         140.7300  143.9481  162.5656 C.ar    1  UNL1        0.0345
     12 C         140.1645  143.2944  163.7916 C.ar    1  UNL1        0.0058
     13 C         138.7394  143.5462  164.1861 C.ar    1  UNL1        0.0208
     14 C         137.8798  144.4517  163.3547 C.ar    1  UNL1        0.1003
     15 N         138.4453  145.1054  162.1288 N.ar    1  UNL1       -0.2290
     16 O         139.3084  143.6977  159.0236 O.2     1  UNL1       -0.2748
     17 C         140.1549  144.9292  159.1530 C.2     1  UNL1        0.2267
     18 N         140.4359  145.5072  160.5083 N.am    1  UNL1       -0.2694
     19 H         140.9915  146.3155  160.5933 H       1  UNL1        0.1563
     20 C         140.7205  145.5829  157.9269 C.3     1  UNL1        0.0769
     21 C         140.5280  146.4041  156.6866 C.3     1  UNL1        0.0096
     22 C         141.8925  145.8937  157.0438 C.3     1  UNL1        0.0096
     23 C         142.4146  140.9137  167.9328 C.ar    1  UNL1        0.0641
     24 C         142.0810  139.5444  168.4465 C.ar    1  UNL1        0.0175
     25 C         142.4373  139.1635  169.8529 C.ar    1  UNL1        0.0015
     26 C         143.1271  140.1519  170.7457 C.ar    1  UNL1        0.0001
     27 C         143.4606  141.5212  170.2321 C.ar    1  UNL1        0.0015
     28 C         143.1044  141.9021  168.8257 C.ar    1  UNL1        0.0175
@<TRIPOS>BOND
     1    16    17    2
     2    17    18   am
     3    18    10    1
     4    10    11   ar
     5    11    12   ar
     6    12     1    1
     7     1     2   ar
     8     2     3   ar
     9     3    23    1
    10    23    24   ar
    11    24    25   ar
    12    25    26   ar
    13    26    27   ar
    14    27    28   ar
    15     3     4   ar
    16     4     5   ar
    17     5     6   ar
    18     6     7   ar
    19     7     8   ar
    20     8     9   ar
    21    12    13   ar
    22    13    14   ar
    23    14    15   ar
    24    17    20    1
    25    20    21    1
    26    21    22    1
    27    15    10   ar
    28    22    20    1
    29     9     1   ar
    30    28    23   ar
    31     9     4   ar
    32    18    19    1
@<TRIPOS>MOLECULE
*****
 28 32 0 0 0
SMALL
GASTEIGER

@<TRIPOS>ATOM
      1 C         139.9190  141.8276  164.8626 C.ar    1  UNL1        0.0192
      2 C         140.8847  142.5681  165.7395 C.ar    1  UNL1        0.0801
      3 N         140.8246  141.9620  167.1103 N.ar    1  UNL1       -0.3035
      4 C         139.8218  140.8468  167.0805 C.ar    1  UNL1        0.0832
      5 C         139.3460  139.8963  168.1388 C.ar    1  UNL1        0.1163
      6 N         138.3105  138.8628  167.8079 N.ar    1  UNL1       -0.2408
      7 C         137.7508  138.7798  166.4188 C.ar    1  UNL1        0.0990
      8 C         138.2266  139.7303  165.3604 C.ar    1  UNL1        0.0222
      9 C         139.2621  140.7638  165.6913 C.ar    1  UNL1        0.0206
     10 C         140.4737  142.1455  160.9457 C.ar    1  UNL1        0.1342
     11 C         140.7363  141.8705  162.3967 C.ar    1  UNL1        0.0345
     12 C         139.6563  142.1026  163.4116 C.ar    1  UNL1        0.0058
     13 C         138.3138  142.6097  162.9753 C.ar    1  UNL1        0.0208
     14 C         138.0511  142.8846  161.5243 C.ar    1  UNL1        0.1003
     15 N         139.1311  142.6526  160.5095 N.ar    1  UNL1       -0.2290
     16 O         142.4859  144.2968  160.3782 O.2     1  UNL1       -0.2748
     17 C         142.5598  142.9891  159.6472 C.2     1  UNL1        0.2267
     18 N         141.5536  141.9134  159.9310 N.am    1  UNL1       -0.2694
     19 H         141.6021  141.0550  159.4512 H       1  UNL1        0.1563
     20 C         143.6399  142.7570  158.6324 C.3     1  UNL1        0.0769
     21 C         145.0904  142.5716  158.2985 C.3     1  UNL1        0.0096
     22 C         144.0600  142.5405  157.2088 C.3     1  UNL1        0.0096
     23 C         141.6265  142.3949  168.3017 C.ar    1  UNL1        0.0641
     24 C         140.9949  143.2494  169.3606 C.ar    1  UNL1        0.0175
     25 C         141.7968  143.6824  170.5520 C.ar    1  UNL1        0.0015
     26 C         143.2303  143.2609  170.6846 C.ar    1  UNL1        0.0001
     27 C         143.8618  142.4064  169.6258 C.ar    1  UNL1        0.0015
     28 C         143.0599  141.9735  168.4344 C.ar    1  UNL1        0.0175
@<TRIPOS>BOND
     1    16    17    2
     2    17    18   am
     3    18    10    1
     4    10    11   ar
     5    11    12   ar
     6    12     1    1
     7     1     2   ar
     8     2     3   ar
     9     3    23    1
    10    23    24   ar
    11    24    25   ar
    12    25    26   ar
    13    26    27   ar
    14    27    28   ar
    15     3     4   ar
    16     4     5   ar
    17     5     6   ar
    18     6     7   ar
    19     7     8   ar
    20     8     9   ar
    21    12    13   ar
    22    13    14   ar
    23    14    15   ar
    24    17    20    1
    25    20    21    1
    26    21    22    1
    27    15    10   ar
    28    22    20    1
    29     9     1   ar
    30    28    23   ar
    31     9     4   ar
    32    18    19    1
@<TRIPOS>MOLECULE
*****
 28 32 0 0 0
SMALL
GASTEIGER

@<TRIPOS>ATOM
      1 C         141.6672  141.3909  167.3002 C.ar    1  UNL1        0.0192
      2 C         142.7137  141.7987  166.3059 C.ar    1  UNL1        0.0801
      3 N         142.2686  141.3383  164.9495 N.ar    1  UNL1       -0.3035
      4 C         140.9471  140.6459  165.1055 C.ar    1  UNL1        0.0832
      5 C         140.0343  139.9900  164.1123 C.ar    1  UNL1        0.1163
      6 N         138.7497  139.3667  164.5719 N.ar    1  UNL1       -0.2408
      7 C         138.3780  139.3992  166.0248 C.ar    1  UNL1        0.0990
      8 C         139.2909  140.0551  167.0180 C.ar    1  UNL1        0.0222
      9 C         140.5754  140.6784  166.5583 C.ar    1  UNL1        0.0206
     10 C         142.5751  143.0342  170.7968 C.ar    1  UNL1        0.1342
     11 C         142.5366  142.7750  169.3198 C.ar    1  UNL1        0.0345
     12 C         141.7057  141.6501  168.7772 C.ar    1  UNL1        0.0058
     13 C         140.9136  140.7844  169.7115 C.ar    1  UNL1        0.0208
     14 C         140.9521  141.0436  171.1884 C.ar    1  UNL1        0.1003
     15 N         141.7829  142.1685  171.7311 N.ar    1  UNL1       -0.2290
     16 O         145.5178  143.1377  170.2228 O.2     1  UNL1       -0.2748
     17 C         144.8772  144.2108  171.0523 C.2     1  UNL1        0.2267
     18 N         143.4059  144.1591  171.3393 N.am    1  UNL1       -0.2694
     19 H         142.9854  144.8634  171.8837 H       1  UNL1        0.1563
     20 C         145.7081  145.3357  171.5949 C.3     1  UNL1        0.0769
     21 C         145.9690  146.8058  171.7389 C.3     1  UNL1        0.0096
     22 C         146.8864  145.8140  172.3906 C.3     1  UNL1        0.0096
     23 C         143.0141  141.5355  163.6629 C.ar    1  UNL1        0.0641
     24 C         143.4252  142.9142  163.2381 C.ar    1  UNL1        0.0175
     25 C         144.1708  143.1115  161.9515 C.ar    1  UNL1        0.0015
     26 C         144.5052  141.9302  161.0897 C.ar    1  UNL1        0.0001
     27 C         144.0942  140.5516  161.5146 C.ar    1  UNL1        0.0015
     28 C         143.3486  140.3543  162.8012 C.ar    1  UNL1        0.0175
@<TRIPOS>BOND
     1    16    17    2
     2    17    18   am
     3    18    10    1
     4    10    11   ar
     5    11    12   ar
     6    12     1    1
     7     1     2   ar
     8     2     3   ar
     9     3    23    1
    10    23    24   ar
    11    24    25   ar
    12    25    26   ar
    13    26    27   ar
    14    27    28   ar
    15     3     4   ar
    16     4     5   ar
    17     5     6   ar
    18     6     7   ar
    19     7     8   ar
    20     8     9   ar
    21    12    13   ar
    22    13    14   ar
    23    14    15   ar
    24    17    20    1
    25    20    21    1
    26    21    22    1
    27    15    10   ar
    28    22    20    1
    29     9     1   ar
    30    28    23   ar
    31     9     4   ar
    32    18    19    1
