@<TRIPOS>MOLECULE
*****
 46 52 0 0 0
SMALL
GASTEIGER

@<TRIPOS>ATOM
      1 C         140.8149  142.1425  162.0740 C.3     1  UNL1        0.0235
      2 C         141.3132  142.9383  163.2438 C.3     1  UNL1        0.0257
      3 C         141.2954  142.3408  164.6196 C.3     1  UNL1        0.0940
      4 N         140.7793  140.9475  164.8256 N.am    1  UNL1       -0.2761
      5 C         140.7615  140.3501  166.2013 C.2     1  UNL1        0.2491
      6 O         140.2454  138.9568  166.4073 O.2     1  UNL1       -0.2699
      7 C         140.2810  140.1518  163.6558 C.3     1  UNL1        0.0940
      8 C         140.2988  140.7492  162.2801 C.3     1  UNL1        0.0257
      9 C         140.4520  141.7878  160.6624 C.ar    1  UNL1       -0.0226
     10 C         139.2329  142.3886  160.0278 C.ar    1  UNL1       -0.0043
     11 C         138.8701  142.0338  158.6162 C.ar    1  UNL1       -0.0003
     12 C         139.7264  141.0782  157.8393 C.ar    1  UNL1       -0.0000
     13 C         140.9456  140.4774  158.4740 C.ar    1  UNL1       -0.0003
     14 C         141.3083  140.8322  159.8856 C.ar    1  UNL1       -0.0043
     15 C         141.2598  141.1459  167.3711 C.ar    1  UNL1        0.0549
     16 C         142.7289  141.4020  167.5328 C.ar    1  UNL1        0.0046
     17 C         143.2271  142.1979  168.7026 C.ar    1  UNL1        0.0015
     18 C         142.2563  142.7376  169.7106 C.ar    1  UNL1        0.0199
     19 C         140.7872  142.4815  169.5489 C.ar    1  UNL1        0.1218
     20 C         140.2890  141.6857  168.3791 C.ar    1  UNL1        0.0244
     21 S         139.8164  143.0213  170.5569 S.O2    1  UNL1        0.0572
     22 N         138.8456  143.5611  171.5649 N.3     1  UNL1       -0.2035
     23 O         139.2302  141.6510  170.7261 O.2     1  UNL1       -0.1532
     24 O         140.4026  144.3917  170.3877 O.2     1  UNL1       -0.1532
     25 H         138.2497  142.8049  171.9019 H       1  UNL1        0.1442
     26 H         138.2683  144.2806  171.1296 H       1  UNL1        0.1442
     27 C         141.2049  143.4125  161.3778 C.3     1  UNL1        0.0215
     28 C         142.6484  143.8137  161.3023 C.3     1  UNL1        0.0723
     29 C         142.7388  143.8129  161.4306 C.3     1  UNL1        0.0893
     30 C         143.2460  142.4789  160.9688 C.3     1  UNL1        0.0386
     31 C         144.2719  141.7447  161.7803 C.3     1  UNL1        0.0594
     32 C         145.2497  141.3915  162.8615 C.3     1  UNL1        0.0174
     33 C         145.2564  142.5080  163.8632 C.3     1  UNL1        0.0174
     34 C         144.2828  143.5513  163.4011 C.3     1  UNL1        0.0594
     35 C         143.2576  144.4127  162.7038 C.3     1  UNL1        0.0386
     36 N         143.6743  143.0795  162.1137 N.3     1  UNL1       -0.2751
     37 C         140.7021  145.5601  162.6533 C.3     1  UNL1        0.0718
     38 C         140.6453  145.4525  161.1582 C.ar    1  UNL1        0.1207
     39 N         139.8470  145.9697  159.9984 N.ar    1  UNL1       -0.2309
     40 C         140.4212  145.3839  158.7425 C.ar    1  UNL1        0.0983
     41 C         140.0430  145.5376  157.2992 C.ar    1  UNL1        0.0206
     42 C         140.8179  144.8120  156.2395 C.ar    1  UNL1        0.0016
     43 C         141.9711  143.9328  156.6232 C.ar    1  UNL1        0.0016
     44 C         142.3493  143.7791  158.0665 C.ar    1  UNL1        0.0188
     45 C         141.5743  144.5047  159.1262 C.ar    1  UNL1        0.0785
     46 N         141.7128  144.5471  160.6192 N.ar    1  UNL1       -0.3167
@<TRIPOS>BOND
     1    37    38    1
     2    38    39   ar
     3    39    40   ar
     4    40    41   ar
     5    41    42   ar
     6    42    43   ar
     7    43    44   ar
     8    44    45   ar
     9    45    46   ar
    10    46    29    1
    11    29    30    1
    12    30    31    1
    13    31    32    1
    14    32    33    1
    15    33    34    1
    16    34    35    1
    17    34    36    1
    18    36    28    1
    19    28    27    1
    20    27     1    1
    21     1     9    1
    22     9    10   ar
    23    10    11   ar
    24    11    12   ar
    25    12    13   ar
    26    13    14   ar
    27     1     2    1
    28     2     3    1
    29     3     4    1
    30     4     5   am
    31     5     6    2
    32     5    15    1
    33    15    16   ar
    34    16    17   ar
    35    17    18   ar
    36    18    19   ar
    37    19    21    1
    38    21    22    1
    39    21    23    2
    40    21    24    2
    41    19    20   ar
    42     4     7    1
    43     7     8    1
    44    46    38   ar
    45    35    29    1
    46     8     1    1
    47    45    40   ar
    48    36    31    1
    49    14     9   ar
    50    20    15   ar
    51    22    25    1
    52    22    26    1
@<TRIPOS>MOLECULE
*****
 46 52 0 0 0
SMALL
GASTEIGER

@<TRIPOS>ATOM
      1 C         140.4564  141.4619  162.0651 C.3     1  UNL1        0.0235
      2 C         141.1524  142.0125  163.2743 C.3     1  UNL1        0.0257
      3 C         140.9925  141.3373  164.6042 C.3     1  UNL1        0.0940
      4 N         140.1366  140.1114  164.7248 N.am    1  UNL1       -0.2761
      5 C         139.9767  139.4361  166.0546 C.2     1  UNL1        0.2491
      6 O         139.1208  138.2102  166.1752 O.2     1  UNL1       -0.2699
      7 C         139.4406  139.5608  163.5155 C.3     1  UNL1        0.0940
      8 C         139.6004  140.2360  162.1857 C.3     1  UNL1        0.0257
      9 C         140.0028  141.3199  160.6423 C.ar    1  UNL1       -0.0226
     10 C         138.5879  141.6501  160.2696 C.ar    1  UNL1       -0.0043
     11 C         138.1344  141.5081  158.8468 C.ar    1  UNL1       -0.0003
     12 C         139.0959  141.0357  157.7969 C.ar    1  UNL1       -0.0000
     13 C         140.5108  140.7055  158.1696 C.ar    1  UNL1       -0.0003
     14 C         140.9643  140.8476  159.5924 C.ar    1  UNL1       -0.0043
     15 C         140.6728  139.9868  167.2638 C.ar    1  UNL1        0.0549
     16 C         142.0981  139.6126  167.5442 C.ar    1  UNL1        0.0046
     17 C         142.7941  140.1633  168.7534 C.ar    1  UNL1        0.0015
     18 C         142.0648  141.0882  169.6823 C.ar    1  UNL1        0.0199
     19 C         140.6395  141.4624  169.4019 C.ar    1  UNL1        0.1218
     20 C         139.9435  140.9116  168.1927 C.ar    1  UNL1        0.0244
     21 S         139.9104  142.3872  170.3308 S.O2    1  UNL1        0.0572
     22 N         139.1811  143.3121  171.2597 N.3     1  UNL1       -0.2035
     23 O         141.0385  143.3713  170.2366 O.2     1  UNL1       -0.1532
     24 O         138.7822  141.4031  170.4250 O.2     1  UNL1       -0.1532
     25 H         139.7391  144.1526  171.4099 H       1  UNL1        0.1442
     26 H         139.0248  142.8438  172.1523 H       1  UNL1        0.1442
     27 C         141.1548  142.6384  161.4504 C.3     1  UNL1        0.0215
     28 C         140.7571  144.0324  161.8363 C.3     1  UNL1        0.0723
     29 C         140.7379  144.0753  161.9861 C.3     1  UNL1        0.0893
     30 C         139.2720  143.8267  161.7867 C.3     1  UNL1        0.0386
     31 C         138.3132  144.0468  162.9191 C.3     1  UNL1        0.0594
     32 C         137.7532  144.3841  164.2691 C.3     1  UNL1        0.0174
     33 C         138.8922  144.7983  165.1530 C.3     1  UNL1        0.0174
     34 C         140.1561  144.7169  164.3493 C.3     1  UNL1        0.0594
     35 C         141.2447  144.5440  163.3177 C.3     1  UNL1        0.0386
     36 N         139.7983  144.2525  162.9686 N.3     1  UNL1       -0.2751
     37 C         143.5175  143.1871  162.4105 C.3     1  UNL1        0.0718
     38 C         143.1222  143.4058  160.9802 C.ar    1  UNL1        0.1207
     39 N         143.7048  143.3188  159.6007 N.ar    1  UNL1       -0.2309
     40 C         142.6395  143.7143  158.6217 C.ar    1  UNL1        0.0983
     41 C         142.6391  143.8154  157.1251 C.ar    1  UNL1        0.0206
     42 C         141.3977  144.2480  156.4030 C.ar    1  UNL1        0.0016
     43 C         140.1565  144.5796  157.1774 C.ar    1  UNL1        0.0016
     44 C         140.1569  144.4785  158.6740 C.ar    1  UNL1        0.0188
     45 C         141.3983  144.0459  159.3961 C.ar    1  UNL1        0.0785
     46 N         141.6967  143.8552  160.8537 N.ar    1  UNL1       -0.3167
@<TRIPOS>BOND
     1    37    38    1
     2    38    39   ar
     3    39    40   ar
     4    40    41   ar
     5    41    42   ar
     6    42    43   ar
     7    43    44   ar
     8    44    45   ar
     9    45    46   ar
    10    46    29    1
    11    29    30    1
    12    30    31    1
    13    31    32    1
    14    32    33    1
    15    33    34    1
    16    34    35    1
    17    34    36    1
    18    36    28    1
    19    28    27    1
    20    27     1    1
    21     1     9    1
    22     9    10   ar
    23    10    11   ar
    24    11    12   ar
    25    12    13   ar
    26    13    14   ar
    27     1     2    1
    28     2     3    1
    29     3     4    1
    30     4     5   am
    31     5     6    2
    32     5    15    1
    33    15    16   ar
    34    16    17   ar
    35    17    18   ar
    36    18    19   ar
    37    19    21    1
    38    21    22    1
    39    21    23    2
    40    21    24    2
    41    19    20   ar
    42     4     7    1
    43     7     8    1
    44    46    38   ar
    45    35    29    1
    46     8     1    1
    47    45    40   ar
    48    36    31    1
    49    14     9   ar
    50    20    15   ar
    51    22    25    1
    52    22    26    1
@<TRIPOS>MOLECULE
*****
 46 52 0 0 0
SMALL
GASTEIGER

@<TRIPOS>ATOM
      1 C         141.1971  140.1861  163.0971 C.3     1  UNL1        0.0235
      2 C         140.7318  140.6317  164.4518 C.3     1  UNL1        0.0257
      3 C         141.4808  140.2057  165.6796 C.3     1  UNL1        0.0940
      4 N         142.6950  139.3341  165.5528 N.am    1  UNL1       -0.2761
      5 C         143.4440  138.9081  166.7807 C.2     1  UNL1        0.2491
      6 O         144.6582  138.0366  166.6539 O.2     1  UNL1       -0.2699
      7 C         143.1603  138.8885  164.1982 C.3     1  UNL1        0.0940
      8 C         142.4114  139.3145  162.9704 C.3     1  UNL1        0.0257
      9 C         141.2467  140.0235  161.6067 C.ar    1  UNL1       -0.0226
     10 C         141.7175  141.1566  160.7440 C.ar    1  UNL1       -0.0043
     11 C         141.7671  140.9941  159.2536 C.ar    1  UNL1       -0.0003
     12 C         141.3458  139.6984  158.6261 C.ar    1  UNL1       -0.0000
     13 C         140.8750  138.5653  159.4889 C.ar    1  UNL1       -0.0003
     14 C         140.8254  138.7279  160.9792 C.ar    1  UNL1       -0.0043
     15 C         142.9787  139.3538  168.1353 C.ar    1  UNL1        0.0549
     16 C         142.9655  138.3847  169.2801 C.ar    1  UNL1        0.0046
     17 C         142.5002  138.8304  170.6347 C.ar    1  UNL1        0.0015
     18 C         142.0481  140.2452  170.8444 C.ar    1  UNL1        0.0199
     19 C         142.0613  141.2143  169.6995 C.ar    1  UNL1        0.1218
     20 C         142.5266  140.7686  168.3450 C.ar    1  UNL1        0.0244
     21 S         141.6092  142.6290  169.9093 S.O2    1  UNL1        0.0572
     22 N         141.1571  144.0438  170.1191 N.3     1  UNL1       -0.2035
     23 O         141.2514  142.7301  168.4561 O.2     1  UNL1       -0.1532
     24 O         141.9669  142.5279  171.3626 O.2     1  UNL1       -0.1532
     25 H         140.8252  144.4293  169.2350 H       1  UNL1        0.1442
     26 H         141.9381  144.6030  170.4621 H       1  UNL1        0.1442
     27 C         140.0001  141.0012  162.7063 C.3     1  UNL1        0.0215
     28 C         138.6277  140.5698  163.1313 C.3     1  UNL1        0.0723
     29 C         138.5930  140.5346  163.2803 C.3     1  UNL1        0.0893
     30 C         138.8243  139.0991  162.9117 C.3     1  UNL1        0.0386
     31 C         138.6624  138.0239  163.9451 C.3     1  UNL1        0.0594
     32 C         138.3970  137.3218  165.2437 C.3     1  UNL1        0.0174
     33 C         138.0364  138.3587  166.2660 C.3     1  UNL1        0.0174
     34 C         138.0790  139.7016  165.5991 C.3     1  UNL1        0.0594
     35 C         138.1998  140.8949  164.6822 C.3     1  UNL1        0.0386
     36 N         138.4658  139.4948  164.1646 N.3     1  UNL1       -0.2751
     37 C         137.6659  140.2150  160.4993 C.3     1  UNL1        0.0718
     38 C         138.3138  141.5304  160.8154 C.ar    1  UNL1        0.1207
     39 N         138.6726  142.8246  160.1474 N.ar    1  UNL1       -0.2309
     40 C         139.3354  143.7039  161.1661 C.ar    1  UNL1        0.0983
     41 C         139.8993  145.0912  161.0797 C.ar    1  UNL1        0.0206
     42 C         140.5139  145.7276  162.2909 C.ar    1  UNL1        0.0016
     43 C         140.5648  144.9768  163.5885 C.ar    1  UNL1        0.0016
     44 C         140.0009  143.5895  163.6748 C.ar    1  UNL1        0.0188
     45 C         139.3863  142.9530  162.4636 C.ar    1  UNL1        0.0785
     46 N         138.7549  141.6098  162.2469 N.ar    1  UNL1       -0.3167
@<TRIPOS>BOND
     1    37    38    1
     2    38    39   ar
     3    39    40   ar
     4    40    41   ar
     5    41    42   ar
     6    42    43   ar
     7    43    44   ar
     8    44    45   ar
     9    45    46   ar
    10    46    29    1
    11    29    30    1
    12    30    31    1
    13    31    32    1
    14    32    33    1
    15    33    34    1
    16    34    35    1
    17    34    36    1
    18    36    28    1
    19    28    27    1
    20    27     1    1
    21     1     9    1
    22     9    10   ar
    23    10    11   ar
    24    11    12   ar
    25    12    13   ar
    26    13    14   ar
    27     1     2    1
    28     2     3    1
    29     3     4    1
    30     4     5   am
    31     5     6    2
    32     5    15    1
    33    15    16   ar
    34    16    17   ar
    35    17    18   ar
    36    18    19   ar
    37    19    21    1
    38    21    22    1
    39    21    23    2
    40    21    24    2
    41    19    20   ar
    42     4     7    1
    43     7     8    1
    44    46    38   ar
    45    35    29    1
    46     8     1    1
    47    45    40   ar
    48    36    31    1
    49    14     9   ar
    50    20    15   ar
    51    22    25    1
    52    22    26    1
@<TRIPOS>MOLECULE
*****
 46 52 0 0 0
SMALL
GASTEIGER

@<TRIPOS>ATOM
      1 C         140.9110  141.1671  161.0134 C.3     1  UNL1        0.0235
      2 C         140.2936  140.0296  160.2551 C.3     1  UNL1        0.0257
      3 C         141.0534  139.3699  159.1426 C.3     1  UNL1        0.0940
      4 N         142.4304  139.8477  158.7884 N.am    1  UNL1       -0.2761
      5 C         143.1901  139.1880  157.6759 C.2     1  UNL1        0.2491
      6 O         144.5672  139.6658  157.3217 O.2     1  UNL1       -0.2699
      7 C         143.0477  140.9852  159.5467 C.3     1  UNL1        0.0940
      8 C         142.2881  141.6449  160.6592 C.3     1  UNL1        0.0257
      9 C         141.0692  142.2719  162.0157 C.ar    1  UNL1       -0.0226
     10 C         141.0108  143.7029  161.5698 C.ar    1  UNL1       -0.0043
     11 C         141.1690  144.8078  162.5721 C.ar    1  UNL1       -0.0003
     12 C         141.3856  144.4815  164.0200 C.ar    1  UNL1       -0.0000
     13 C         141.4440  143.0504  164.4658 C.ar    1  UNL1       -0.0003
     14 C         141.2858  141.9457  163.4635 C.ar    1  UNL1       -0.0043
     15 C         142.5727  138.0505  156.9177 C.ar    1  UNL1        0.0549
     16 C         141.6087  138.3280  155.8025 C.ar    1  UNL1        0.0046
     17 C         140.9914  137.1905  155.0443 C.ar    1  UNL1        0.0015
     18 C         141.3381  135.7754  155.4013 C.ar    1  UNL1        0.0199
     19 C         142.3021  135.4979  156.5164 C.ar    1  UNL1        0.1218
     20 C         142.9194  136.6354  157.2746 C.ar    1  UNL1        0.0244
     21 S         142.6487  134.0829  156.8734 S.O2    1  UNL1        0.0572
     22 N         142.9954  132.6678  157.2303 N.3     1  UNL1       -0.2035
     23 O         141.7705  133.5876  155.7628 O.2     1  UNL1       -0.1532
     24 O         143.5270  134.5781  157.9840 O.2     1  UNL1       -0.1532
     25 H         142.5109  132.0295  156.5992 H       1  UNL1        0.1442
     26 H         142.7083  132.4794  158.1908 H       1  UNL1        0.1442
     27 C         139.5889  141.0730  161.7157 C.3     1  UNL1        0.0215
     28 C         138.3291  141.4568  160.9975 C.3     1  UNL1        0.0723
     29 C         138.2981  141.3968  160.8558 C.3     1  UNL1        0.0893
     30 C         138.8011  142.6899  160.2856 C.3     1  UNL1        0.0386
     31 C         138.8183  142.8983  158.8003 C.3     1  UNL1        0.0594
     32 C         138.6582  142.6724  157.3261 C.3     1  UNL1        0.0174
     33 C         138.0873  141.2996  157.1268 C.3     1  UNL1        0.0174
     34 C         137.8945  140.6772  158.4779 C.3     1  UNL1        0.0594
     35 C         137.8123  140.3123  159.9406 C.3     1  UNL1        0.0386
     36 N         138.3463  141.6652  159.5122 N.3     1  UNL1       -0.2751
     37 C         137.7229  143.5760  162.7573 C.3     1  UNL1        0.0718
     38 C         137.9989  142.2375  163.3755 C.ar    1  UNL1        0.1207
     39 N         138.0864  141.5917  164.7265 N.ar    1  UNL1       -0.2309
     40 C         138.4226  140.1434  164.5272 C.ar    1  UNL1        0.0983
     41 C         138.6347  139.0195  165.4976 C.ar    1  UNL1        0.0206
     42 C         138.9671  137.6464  164.9938 C.ar    1  UNL1        0.0016
     43 C         139.0873  137.3971  163.5195 C.ar    1  UNL1        0.0016
     44 C         138.8751  138.5210  162.5491 C.ar    1  UNL1        0.0188
     45 C         138.5428  139.8942  163.0529 C.ar    1  UNL1        0.0785
     46 N         138.2809  141.1883  162.3412 N.ar    1  UNL1       -0.3167
@<TRIPOS>BOND
     1    37    38    1
     2    38    39   ar
     3    39    40   ar
     4    40    41   ar
     5    41    42   ar
     6    42    43   ar
     7    43    44   ar
     8    44    45   ar
     9    45    46   ar
    10    46    29    1
    11    29    30    1
    12    30    31    1
    13    31    32    1
    14    32    33    1
    15    33    34    1
    16    34    35    1
    17    34    36    1
    18    36    28    1
    19    28    27    1
    20    27     1    1
    21     1     9    1
    22     9    10   ar
    23    10    11   ar
    24    11    12   ar
    25    12    13   ar
    26    13    14   ar
    27     1     2    1
    28     2     3    1
    29     3     4    1
    30     4     5   am
    31     5     6    2
    32     5    15    1
    33    15    16   ar
    34    16    17   ar
    35    17    18   ar
    36    18    19   ar
    37    19    21    1
    38    21    22    1
    39    21    23    2
    40    21    24    2
    41    19    20   ar
    42     4     7    1
    43     7     8    1
    44    46    38   ar
    45    35    29    1
    46     8     1    1
    47    45    40   ar
    48    36    31    1
    49    14     9   ar
    50    20    15   ar
    51    22    25    1
    52    22    26    1
@<TRIPOS>MOLECULE
*****
 46 52 0 0 0
SMALL
GASTEIGER

@<TRIPOS>ATOM
      1 C         140.8573  141.1528  161.0666 C.3     1  UNL1        0.0235
      2 C         140.2186  140.0003  160.3498 C.3     1  UNL1        0.0257
      3 C         140.9508  139.3103  159.2373 C.3     1  UNL1        0.0940
      4 N         142.3217  139.7727  158.8415 N.am    1  UNL1       -0.2761
      5 C         143.0539  139.0827  157.7289 C.2     1  UNL1        0.2491
      6 O         144.4249  139.5451  157.3332 O.2     1  UNL1       -0.2699
      7 C         142.9605  140.9252  159.5583 C.3     1  UNL1        0.0940
      8 C         142.2283  141.6152  160.6708 C.3     1  UNL1        0.0257
      9 C         141.0423  142.2808  162.0380 C.ar    1  UNL1       -0.0226
     10 C         141.2751  141.9889  163.4908 C.ar    1  UNL1       -0.0043
     11 C         141.4601  143.1169  164.4622 C.ar    1  UNL1       -0.0003
     12 C         141.4123  144.5367  163.9807 C.ar    1  UNL1       -0.0000
     13 C         141.1795  144.8286  162.5278 C.ar    1  UNL1       -0.0003
     14 C         140.9946  143.7005  161.5565 C.ar    1  UNL1       -0.0043
     15 C         142.4151  137.9302  157.0122 C.ar    1  UNL1        0.0549
     16 C         142.9955  136.5530  157.1397 C.ar    1  UNL1        0.0046
     17 C         142.3566  135.4005  156.4229 C.ar    1  UNL1        0.0015
     18 C         141.1373  135.6254  155.5787 C.ar    1  UNL1        0.0199
     19 C         140.5569  137.0026  155.4512 C.ar    1  UNL1        0.1218
     20 C         141.1958  138.1551  156.1680 C.ar    1  UNL1        0.0244
     21 S         139.3376  137.2274  154.6070 S.O2    1  UNL1        0.0572
     22 N         138.1183  137.4522  153.7627 N.3     1  UNL1       -0.2035
     23 O         140.2113  137.5344  153.4269 O.2     1  UNL1       -0.1532
     24 O         138.4639  136.9205  155.7870 O.2     1  UNL1       -0.1532
     25 H         138.4020  137.7000  152.8148 H       1  UNL1        0.1442
     26 H         137.5641  138.2104  154.1609 H       1  UNL1        0.1442
     27 C         139.5507  141.0821  161.7997 C.3     1  UNL1        0.0215
     28 C         138.2756  141.4423  161.0964 C.3     1  UNL1        0.0723
     29 C         138.2427  141.3810  160.9558 C.3     1  UNL1        0.0893
     30 C         138.7303  142.6715  160.3667 C.3     1  UNL1        0.0386
     31 C         138.7234  142.8671  158.8795 C.3     1  UNL1        0.0594
     32 C         138.5416  142.6275  157.4100 C.3     1  UNL1        0.0174
     33 C         137.9746  141.2503  157.2315 C.3     1  UNL1        0.0174
     34 C         137.8059  140.6387  158.5907 C.3     1  UNL1        0.0594
     35 C         137.7482  140.2862  160.0576 C.3     1  UNL1        0.0386
     36 N         138.2687  141.6379  159.6094 N.3     1  UNL1       -0.2751
     37 C         137.7168  143.5807  162.8479 C.3     1  UNL1        0.0718
     38 C         137.9933  142.2455  163.4728 C.ar    1  UNL1        0.1207
     39 N         138.0993  141.6106  164.8277 N.ar    1  UNL1       -0.2309
     40 C         138.4210  140.1582  164.6352 C.ar    1  UNL1        0.0983
     41 C         138.6414  139.0411  165.6116 C.ar    1  UNL1        0.0206
     42 C         138.9547  137.6611  165.1141 C.ar    1  UNL1        0.0016
     43 C         139.0476  137.3983  163.6402 C.ar    1  UNL1        0.0016
     44 C         138.8272  138.5155  162.6638 C.ar    1  UNL1        0.0188
     45 C         138.5139  139.8954  163.1614 C.ar    1  UNL1        0.0785
     46 N         138.2495  141.1854  162.4430 N.ar    1  UNL1       -0.3167
@<TRIPOS>BOND
     1    37    38    1
     2    38    39   ar
     3    39    40   ar
     4    40    41   ar
     5    41    42   ar
     6    42    43   ar
     7    43    44   ar
     8    44    45   ar
     9    45    46   ar
    10    46    29    1
    11    29    30    1
    12    30    31    1
    13    31    32    1
    14    32    33    1
    15    33    34    1
    16    34    35    1
    17    34    36    1
    18    36    28    1
    19    28    27    1
    20    27     1    1
    21     1     9    1
    22     9    10   ar
    23    10    11   ar
    24    11    12   ar
    25    12    13   ar
    26    13    14   ar
    27     1     2    1
    28     2     3    1
    29     3     4    1
    30     4     5   am
    31     5     6    2
    32     5    15    1
    33    15    16   ar
    34    16    17   ar
    35    17    18   ar
    36    18    19   ar
    37    19    21    1
    38    21    22    1
    39    21    23    2
    40    21    24    2
    41    19    20   ar
    42     4     7    1
    43     7     8    1
    44    46    38   ar
    45    35    29    1
    46     8     1    1
    47    45    40   ar
    48    36    31    1
    49    14     9   ar
    50    20    15   ar
    51    22    25    1
    52    22    26    1
@<TRIPOS>MOLECULE
*****
 46 52 0 0 0
SMALL
GASTEIGER

@<TRIPOS>ATOM
      1 C         140.1549  140.8480  161.9023 C.3     1  UNL1        0.0235
      2 C         140.9649  141.4259  163.0248 C.3     1  UNL1        0.0257
      3 C         140.7721  140.9232  164.4249 C.3     1  UNL1        0.0940
      4 N         139.7694  139.8427  164.7025 N.am    1  UNL1       -0.2761
      5 C         139.5767  139.3401  166.1026 C.2     1  UNL1        0.2491
      6 O         138.5740  138.2596  166.3802 O.2     1  UNL1       -0.2699
      7 C         138.9595  139.2648  163.5800 C.3     1  UNL1        0.0940
      8 C         139.1522  139.7674  162.1799 C.3     1  UNL1        0.0257
      9 C         139.6298  140.6175  160.5161 C.ar    1  UNL1       -0.0226
     10 C         138.7678  141.6541  159.8587 C.ar    1  UNL1       -0.0043
     11 C         138.2426  141.4236  158.4726 C.ar    1  UNL1       -0.0003
     12 C         138.5796  140.1564  157.7441 C.ar    1  UNL1       -0.0000
     13 C         139.4417  139.1198  158.4016 C.ar    1  UNL1       -0.0003
     14 C         139.9667  139.3504  159.7877 C.ar    1  UNL1       -0.0043
     15 C         140.3867  139.9181  167.2250 C.ar    1  UNL1        0.0549
     16 C         141.8379  139.5644  167.3622 C.ar    1  UNL1        0.0046
     17 C         142.6478  140.1424  168.4847 C.ar    1  UNL1        0.0015
     18 C         142.0065  141.0741  169.4699 C.ar    1  UNL1        0.0199
     19 C         140.5553  141.4278  169.3327 C.ar    1  UNL1        0.1218
     20 C         139.7454  140.8498  168.2102 C.ar    1  UNL1        0.0244
     21 S         139.9141  142.3595  170.3179 S.O2    1  UNL1        0.0572
     22 N         139.2728  143.2912  171.3031 N.3     1  UNL1       -0.2035
     23 O         141.0739  143.3011  170.1823 O.2     1  UNL1       -0.1532
     24 O         138.7543  141.4179  170.4535 O.2     1  UNL1       -0.1532
     25 H         139.8710  144.1060  171.4396 H       1  UNL1        0.1442
     26 H         139.1458  142.8098  172.1934 H       1  UNL1        0.1442
     27 C         140.9752  141.8484  161.1433 C.3     1  UNL1        0.0215
     28 C         142.4414  141.6111  160.9329 C.3     1  UNL1        0.0723
     29 C         142.5321  141.5666  161.0530 C.3     1  UNL1        0.0893
     30 C         142.4098  140.1685  160.5233 C.3     1  UNL1        0.0386
     31 C         143.0953  139.0363  161.2292 C.3     1  UNL1        0.0594
     32 C         143.9132  138.2565  162.2155 C.3     1  UNL1        0.0174
     33 C         144.4503  139.2172  163.2347 C.3     1  UNL1        0.0174
     34 C         143.9643  140.5908  162.8783 C.3     1  UNL1        0.0594
     35 C         143.3400  141.8324  162.2885 C.3     1  UNL1        0.0386
     36 N         143.1268  140.4790  161.6388 N.3     1  UNL1       -0.2751
     37 C         142.3107  141.7032  158.1156 C.3     1  UNL1        0.0718
     38 C         141.6896  142.8462  158.8626 C.ar    1  UNL1        0.1207
     39 N         140.9437  144.1208  158.5998 N.ar    1  UNL1       -0.2309
     40 C         140.6398  144.7610  159.9218 C.ar    1  UNL1        0.0983
     41 C         139.9269  146.0308  160.2817 C.ar    1  UNL1        0.0206
     42 C         139.7722  146.4216  161.7216 C.ar    1  UNL1        0.0016
     43 C         140.3302  145.5427  162.8015 C.ar    1  UNL1        0.0016
     44 C         141.0430  144.2730  162.4415 C.ar    1  UNL1        0.0188
     45 C         141.1978  143.8822  161.0016 C.ar    1  UNL1        0.0785
     46 N         141.8466  142.6987  160.3470 N.ar    1  UNL1       -0.3167
@<TRIPOS>BOND
     1    37    38    1
     2    38    39   ar
     3    39    40   ar
     4    40    41   ar
     5    41    42   ar
     6    42    43   ar
     7    43    44   ar
     8    44    45   ar
     9    45    46   ar
    10    46    29    1
    11    29    30    1
    12    30    31    1
    13    31    32    1
    14    32    33    1
    15    33    34    1
    16    34    35    1
    17    34    36    1
    18    36    28    1
    19    28    27    1
    20    27     1    1
    21     1     9    1
    22     9    10   ar
    23    10    11   ar
    24    11    12   ar
    25    12    13   ar
    26    13    14   ar
    27     1     2    1
    28     2     3    1
    29     3     4    1
    30     4     5   am
    31     5     6    2
    32     5    15    1
    33    15    16   ar
    34    16    17   ar
    35    17    18   ar
    36    18    19   ar
    37    19    21    1
    38    21    22    1
    39    21    23    2
    40    21    24    2
    41    19    20   ar
    42     4     7    1
    43     7     8    1
    44    46    38   ar
    45    35    29    1
    46     8     1    1
    47    45    40   ar
    48    36    31    1
    49    14     9   ar
    50    20    15   ar
    51    22    25    1
    52    22    26    1
@<TRIPOS>MOLECULE
*****
 46 52 0 0 0
SMALL
GASTEIGER

@<TRIPOS>ATOM
      1 C         141.6202  141.8579  164.8779 C.3     1  UNL1        0.0235
      2 C         141.6235  140.9492  163.6844 C.3     1  UNL1        0.0257
      3 C         141.6829  141.5275  162.3017 C.3     1  UNL1        0.0940
      4 N         141.7389  143.0145  162.1123 N.am    1  UNL1       -0.2761
      5 C         141.7983  143.5928  160.7295 C.2     1  UNL1        0.2491
      6 O         141.8543  145.0797  160.5402 O.2     1  UNL1       -0.2699
      7 C         141.7355  143.9231  163.3058 C.3     1  UNL1        0.0940
      8 C         141.6762  143.3449  164.6885 C.3     1  UNL1        0.0257
      9 C         141.5942  142.3040  166.3099 C.ar    1  UNL1       -0.0226
     10 C         142.8158  142.1481  167.1662 C.ar    1  UNL1       -0.0043
     11 C         142.7898  142.5943  168.5982 C.ar    1  UNL1       -0.0003
     12 C         141.5422  143.1963  169.1736 C.ar    1  UNL1       -0.0000
     13 C         140.3206  143.3522  168.3172 C.ar    1  UNL1       -0.0003
     14 C         140.3467  142.9060  166.8853 C.ar    1  UNL1       -0.0043
     15 C         141.8016  142.6840  159.5361 C.ar    1  UNL1        0.0549
     16 C         140.5047  142.2509  158.9195 C.ar    1  UNL1        0.0046
     17 C         140.5081  141.3422  157.7261 C.ar    1  UNL1        0.0015
     18 C         141.8086  140.8666  157.1493 C.ar    1  UNL1        0.0199
     19 C         143.1056  141.2997  157.7660 C.ar    1  UNL1        0.1218
     20 C         143.1021  142.2084  158.9594 C.ar    1  UNL1        0.0244
     21 S         144.4059  140.8241  157.1892 S.O2    1  UNL1        0.0572
     22 N         145.7063  140.3484  156.6124 N.3     1  UNL1       -0.2035
     23 O         144.8658  142.2454  157.0540 O.2     1  UNL1       -0.1532
     24 O         143.9461  139.4027  157.3244 O.2     1  UNL1       -0.1532
     25 H         146.2959  141.1518  156.3949 H       1  UNL1        0.1442
     26 H         145.5264  139.8181  155.7599 H       1  UNL1        0.1442
     27 C         141.5552  140.5259  165.5645 C.3     1  UNL1        0.0215
     28 C         140.3189  139.6837  165.4522 C.3     1  UNL1        0.0723
     29 C         140.2597  139.6479  165.3113 C.3     1  UNL1        0.0893
     30 C         139.2777  140.7608  165.5294 C.3     1  UNL1        0.0386
     31 C         138.2512  141.0715  164.4807 C.3     1  UNL1        0.0594
     32 C         137.4422  141.0253  163.2185 C.3     1  UNL1        0.0174
     33 C         137.9833  139.9198  162.3612 C.3     1  UNL1        0.0174
     34 C         139.1268  139.2826  163.0936 C.3     1  UNL1        0.0594
     35 C         140.2151  138.8459  164.0446 C.3     1  UNL1        0.0386
     36 N         139.2924  139.9944  164.4036 N.3     1  UNL1       -0.2751
     37 C         142.9297  138.5839  164.6521 C.3     1  UNL1        0.0718
     38 C         142.6630  138.7956  166.1130 C.ar    1  UNL1        0.1207
     39 N         143.3438  138.6373  167.4401 N.ar    1  UNL1       -0.2309
     40 C         142.3878  139.0811  168.5074 C.ar    1  UNL1        0.0983
     41 C         142.5110  139.1472  170.0009 C.ar    1  UNL1        0.0206
     42 C         141.3625  139.6460  170.8267 C.ar    1  UNL1        0.0016
     43 C         140.0908  140.0786  170.1592 C.ar    1  UNL1        0.0016
     44 C         139.9676  140.0125  168.6657 C.ar    1  UNL1        0.0188
     45 C         141.1162  139.5138  167.8399 C.ar    1  UNL1        0.0785
     46 N         141.2862  139.3373  166.3600 N.ar    1  UNL1       -0.3167
@<TRIPOS>BOND
     1    37    38    1
     2    38    39   ar
     3    39    40   ar
     4    40    41   ar
     5    41    42   ar
     6    42    43   ar
     7    43    44   ar
     8    44    45   ar
     9    45    46   ar
    10    46    29    1
    11    29    30    1
    12    30    31    1
    13    31    32    1
    14    32    33    1
    15    33    34    1
    16    34    35    1
    17    34    36    1
    18    36    28    1
    19    28    27    1
    20    27     1    1
    21     1     9    1
    22     9    10   ar
    23    10    11   ar
    24    11    12   ar
    25    12    13   ar
    26    13    14   ar
    27     1     2    1
    28     2     3    1
    29     3     4    1
    30     4     5   am
    31     5     6    2
    32     5    15    1
    33    15    16   ar
    34    16    17   ar
    35    17    18   ar
    36    18    19   ar
    37    19    21    1
    38    21    22    1
    39    21    23    2
    40    21    24    2
    41    19    20   ar
    42     4     7    1
    43     7     8    1
    44    46    38   ar
    45    35    29    1
    46     8     1    1
    47    45    40   ar
    48    36    31    1
    49    14     9   ar
    50    20    15   ar
    51    22    25    1
    52    22    26    1
@<TRIPOS>MOLECULE
*****
 46 52 0 0 0
SMALL
GASTEIGER

@<TRIPOS>ATOM
      1 C         140.1647  141.3798  163.0019 C.3     1  UNL1        0.0235
      2 C         140.6461  141.9035  164.3225 C.3     1  UNL1        0.0257
      3 C         140.2208  141.2332  165.5953 C.3     1  UNL1        0.0940
      4 N         139.3141  140.0392  165.5474 N.am    1  UNL1       -0.2761
      5 C         138.8889  139.3689  166.8202 C.2     1  UNL1        0.2491
      6 O         137.9822  138.1749  166.7724 O.2     1  UNL1       -0.2699
      7 C         138.8327  139.5155  164.2268 C.3     1  UNL1        0.0940
      8 C         139.2579  140.1858  162.9541 C.3     1  UNL1        0.0257
      9 C         139.9752  141.2558  161.5191 C.ar    1  UNL1       -0.0226
     10 C         138.6517  141.5965  160.9010 C.ar    1  UNL1       -0.0043
     11 C         138.4623  141.4725  159.4181 C.ar    1  UNL1       -0.0003
     12 C         139.5964  141.0077  158.5535 C.ar    1  UNL1       -0.0000
     13 C         140.9200  140.6669  159.1716 C.ar    1  UNL1       -0.0003
     14 C         141.1093  140.7910  160.6545 C.ar    1  UNL1       -0.0043
     15 C         139.3704  139.8927  168.1407 C.ar    1  UNL1        0.0549
     16 C         138.4579  139.8780  169.3312 C.ar    1  UNL1        0.0046
     17 C         138.9395  140.4018  170.6517 C.ar    1  UNL1        0.0015
     18 C         140.3335  140.9402  170.7818 C.ar    1  UNL1        0.0199
     19 C         141.2459  140.9549  169.5913 C.ar    1  UNL1        0.1218
     20 C         140.7644  140.4311  168.2708 C.ar    1  UNL1        0.0244
     21 S         142.6399  141.4932  169.7214 S.O2    1  UNL1        0.0572
     22 N         144.0338  142.0317  169.8514 N.3     1  UNL1       -0.2035
     23 O         143.1669  140.0956  169.8587 O.2     1  UNL1       -0.1532
     24 O         142.1129  142.8910  169.5841 O.2     1  UNL1       -0.1532
     25 H         144.6877  141.2577  169.9689 H       1  UNL1        0.1442
     26 H         144.0862  142.6472  170.6631 H       1  UNL1        0.1442
     27 C         141.0055  142.5307  162.5348 C.3     1  UNL1        0.0215
     28 C         140.5515  143.9393  162.7794 C.3     1  UNL1        0.0723
     29 C         140.4997  143.9850  162.9204 C.3     1  UNL1        0.0893
     30 C         139.1120  143.7744  162.3912 C.3     1  UNL1        0.0386
     31 C         137.9259  144.0381  163.2708 C.3     1  UNL1        0.0594
     32 C         137.0814  144.4110  164.4530 C.3     1  UNL1        0.0174
     33 C         137.9989  144.8064  165.5719 C.3     1  UNL1        0.0174
     34 C         139.4105  144.6778  165.0811 C.3     1  UNL1        0.0594
     35 C         140.7012  144.4591  164.3290 C.3     1  UNL1        0.0386
     36 N         139.3654  144.2029  163.6589 N.3     1  UNL1       -0.2751
     37 C         140.5254  144.6539  160.0485 C.3     1  UNL1        0.0718
     38 C         141.7830  144.0291  160.5759 C.ar    1  UNL1        0.1207
     39 N         143.1402  143.6015  160.1015 N.ar    1  UNL1       -0.2309
     40 C         143.8819  143.0295  161.2731 C.ar    1  UNL1        0.0983
     41 C         145.2596  142.4508  161.4035 C.ar    1  UNL1        0.0206
     42 C         145.7384  141.9461  162.7323 C.ar    1  UNL1        0.0016
     43 C         144.8395  142.0201  163.9309 C.ar    1  UNL1        0.0016
     44 C         143.4618  142.5988  163.8006 C.ar    1  UNL1        0.0188
     45 C         142.9830  143.1035  162.4717 C.ar    1  UNL1        0.0785
     46 N         141.6858  143.7213  162.0408 N.ar    1  UNL1       -0.3167
@<TRIPOS>BOND
     1    37    38    1
     2    38    39   ar
     3    39    40   ar
     4    40    41   ar
     5    41    42   ar
     6    42    43   ar
     7    43    44   ar
     8    44    45   ar
     9    45    46   ar
    10    46    29    1
    11    29    30    1
    12    30    31    1
    13    31    32    1
    14    32    33    1
    15    33    34    1
    16    34    35    1
    17    34    36    1
    18    36    28    1
    19    28    27    1
    20    27     1    1
    21     1     9    1
    22     9    10   ar
    23    10    11   ar
    24    11    12   ar
    25    12    13   ar
    26    13    14   ar
    27     1     2    1
    28     2     3    1
    29     3     4    1
    30     4     5   am
    31     5     6    2
    32     5    15    1
    33    15    16   ar
    34    16    17   ar
    35    17    18   ar
    36    18    19   ar
    37    19    21    1
    38    21    22    1
    39    21    23    2
    40    21    24    2
    41    19    20   ar
    42     4     7    1
    43     7     8    1
    44    46    38   ar
    45    35    29    1
    46     8     1    1
    47    45    40   ar
    48    36    31    1
    49    14     9   ar
    50    20    15   ar
    51    22    25    1
    52    22    26    1
@<TRIPOS>MOLECULE
*****
 46 52 0 0 0
SMALL
GASTEIGER

@<TRIPOS>ATOM
      1 C         141.9850  142.7443  161.4654 C.3     1  UNL1        0.0235
      2 C         141.5689  141.7414  162.5003 C.3     1  UNL1        0.0257
      3 C         142.1469  141.8065  163.8830 C.3     1  UNL1        0.0940
      4 N         143.1410  142.8746  164.2308 N.am    1  UNL1       -0.2761
      5 C         143.7189  142.9397  165.6134 C.2     1  UNL1        0.2491
      6 O         144.7130  144.0078  165.9612 O.2     1  UNL1       -0.2699
      7 C         143.5571  143.8775  163.1959 C.3     1  UNL1        0.0940
      8 C         142.9792  143.8124  161.8133 C.3     1  UNL1        0.0257
      9 C         142.0657  143.4630  160.1512 C.ar    1  UNL1       -0.0226
     10 C         142.8011  142.8422  159.0008 C.ar    1  UNL1       -0.0043
     11 C         142.8818  143.5609  157.6866 C.ar    1  UNL1       -0.0003
     12 C         142.2270  144.9005  157.5231 C.ar    1  UNL1       -0.0000
     13 C         141.4916  145.5214  158.6736 C.ar    1  UNL1       -0.0003
     14 C         141.4110  144.8026  159.9877 C.ar    1  UNL1       -0.0043
     15 C         143.3027  141.9368  166.6482 C.ar    1  UNL1        0.0549
     16 C         143.1663  140.4896  166.2780 C.ar    1  UNL1        0.0046
     17 C         142.7501  139.4867  167.3128 C.ar    1  UNL1        0.0015
     18 C         142.4703  139.9309  168.7180 C.ar    1  UNL1        0.0199
     19 C         142.6067  141.3781  169.0882 C.ar    1  UNL1        0.1218
     20 C         143.0229  142.3810  168.0534 C.ar    1  UNL1        0.0244
     21 S         142.3269  141.8223  170.4933 S.O2    1  UNL1        0.0572
     22 N         142.0471  142.2665  171.8985 N.3     1  UNL1       -0.2035
     23 O         143.0731  143.0984  170.2385 O.2     1  UNL1       -0.1532
     24 O         141.5807  140.5462  170.7482 O.2     1  UNL1       -0.1532
     25 H         142.4621  143.1853  172.0536 H       1  UNL1        0.1442
     26 H         142.4501  141.5964  172.5535 H       1  UNL1        0.1442
     27 C         141.0190  141.9259  160.6613 C.3     1  UNL1        0.0215
     28 C         139.5509  141.9874  160.9631 C.3     1  UNL1        0.0723
     29 C         139.4993  141.9705  161.1104 C.3     1  UNL1        0.0893
     30 C         139.4013  143.4664  161.1640 C.3     1  UNL1        0.0386
     31 C         138.9203  144.1422  162.4137 C.3     1  UNL1        0.0594
     32 C         138.4119  144.3718  163.8062 C.3     1  UNL1        0.0174
     33 C         138.2474  143.0347  164.4659 C.3     1  UNL1        0.0174
     34 C         138.6540  141.9788  163.4812 C.3     1  UNL1        0.0594
     35 C         139.1163  141.1506  162.3066 C.3     1  UNL1        0.0386
     36 N         139.0699  142.6632  162.2128 N.3     1  UNL1       -0.2751
     37 C         138.7791  142.9224  158.4140 C.3     1  UNL1        0.0718
     38 C         139.6630  141.7112  158.4550 C.ar    1  UNL1        0.1207
     39 N         140.3498  140.7576  157.5228 N.ar    1  UNL1       -0.2309
     40 C         141.0915  139.7517  158.3523 C.ar    1  UNL1        0.0983
     41 C         141.9454  138.5765  157.9786 C.ar    1  UNL1        0.0206
     42 C         142.5709  137.7331  159.0497 C.ar    1  UNL1        0.0016
     43 C         142.3426  138.0650  160.4946 C.ar    1  UNL1        0.0016
     44 C         141.4888  139.2403  160.8683 C.ar    1  UNL1        0.0188
     45 C         140.8632  140.0837  159.7972 C.ar    1  UNL1        0.0785
     46 N         139.9804  141.2947  159.8607 N.ar    1  UNL1       -0.3167
@<TRIPOS>BOND
     1    37    38    1
     2    38    39   ar
     3    39    40   ar
     4    40    41   ar
     5    41    42   ar
     6    42    43   ar
     7    43    44   ar
     8    44    45   ar
     9    45    46   ar
    10    46    29    1
    11    29    30    1
    12    30    31    1
    13    31    32    1
    14    32    33    1
    15    33    34    1
    16    34    35    1
    17    34    36    1
    18    36    28    1
    19    28    27    1
    20    27     1    1
    21     1     9    1
    22     9    10   ar
    23    10    11   ar
    24    11    12   ar
    25    12    13   ar
    26    13    14   ar
    27     1     2    1
    28     2     3    1
    29     3     4    1
    30     4     5   am
    31     5     6    2
    32     5    15    1
    33    15    16   ar
    34    16    17   ar
    35    17    18   ar
    36    18    19   ar
    37    19    21    1
    38    21    22    1
    39    21    23    2
    40    21    24    2
    41    19    20   ar
    42     4     7    1
    43     7     8    1
    44    46    38   ar
    45    35    29    1
    46     8     1    1
    47    45    40   ar
    48    36    31    1
    49    14     9   ar
    50    20    15   ar
    51    22    25    1
    52    22    26    1
