@<TRIPOS>MOLECULE
*****
 31 34 0 0 0
SMALL
GASTEIGER

@<TRIPOS>ATOM
      1 C         139.7460  137.2696  165.0806 C.3     1  UNL1        0.0337
      2 C         139.9501  138.5396  164.3089 C.3     1  UNL1        0.1467
      3 N         139.6938  137.6697  163.1141 N.am    1  UNL1       -0.2806
      4 C         139.7842  138.5284  161.8876 C.2     1  UNL1        0.3106
      5 O         139.5956  138.0674  160.4727 O.2     1  UNL1       -0.2521
      6 N         140.0963  139.9290  162.3243 N.am    1  UNL1       -0.2050
      7 C         140.1988  139.9360  163.8208 C.2     1  UNL1        0.2527
      8 O         140.4976  141.1297  164.6786 O.2     1  UNL1       -0.2723
      9 H         139.5003  136.7045  163.1318 H       1  UNL1        0.1516
     10 C         140.1636  139.1440  165.6651 C.ar    1  UNL1        0.0021
     11 C         141.5554  139.3284  166.1933 C.ar    1  UNL1       -0.0007
     12 C         141.7689  139.9327  167.5495 C.ar    1  UNL1        0.0190
     13 C         140.5906  140.3528  168.3773 C.ar    1  UNL1        0.0862
     14 C         139.1989  140.1684  167.8491 C.ar    1  UNL1        0.0190
     15 C         138.9854  139.5640  166.4930 C.ar    1  UNL1       -0.0007
     16 N         140.8042  140.9572  169.7335 N.ar    1  UNL1       -0.1886
     17 C         142.1130  141.0522  170.4603 C.ar    1  UNL1        0.2258
     18 N         141.8642  141.7264  171.7769 N.ar    1  UNL1       -0.1045
     19 N         140.4016  142.0480  171.8639 N.ar    1  UNL1       -0.0222
     20 N         139.7466  141.5726  170.6010 N.ar    1  UNL1       -0.0385
     21 C         140.2746  141.1146  161.4229 C.3     1  UNL1        0.1714
     22 C         139.2354  142.1959  161.3916 C.2     1  UNL1        0.1957
     23 O         138.4319  142.4282  160.1464 O.2     1  UNL1       -0.2894
     24 C         138.9998  143.0449  162.6055 C.ar    1  UNL1        0.0640
     25 C         139.9758  144.1254  162.9660 C.ar    1  UNL1        0.0075
     26 C         139.7401  144.9745  164.1799 C.ar    1  UNL1        0.0299
     27 C         138.5285  144.7431  165.0333 C.ar    1  UNL1        0.1424
     28 F         138.2928  145.5921  166.2472 F       1  UNL1       -0.2041
     29 C         137.5525  143.6626  164.6728 C.ar    1  UNL1        0.0593
     30 C         137.7881  142.8136  163.4590 C.ar    1  UNL1        0.1451
     31 F         136.8121  141.7331  163.0984 F       1  UNL1       -0.2040
@<TRIPOS>BOND
     1     1     2    1
     2     2    10    1
     3    10    11   ar
     4    11    12   ar
     5    12    13   ar
     6    13    16    1
     7    16    17   ar
     8    17    18   ar
     9    18    19   ar
    10    19    20   ar
    11    13    14   ar
    12    14    15   ar
    13     2     3    1
    14     3     4   am
    15     4     5    2
    16     4     6   am
    17     6    21    1
    18    21    22    1
    19    22    23    2
    20    22    24    1
    21    24    25   ar
    22    25    26   ar
    23    26    27   ar
    24    27    28    1
    25    27    29   ar
    26    29    30   ar
    27    30    31    1
    28     6     7   am
    29     7     8    2
    30     7     2    1
    31    15    10   ar
    32    30    24   ar
    33    20    16   ar
    34     3     9    1
@<TRIPOS>MOLECULE
*****
 31 34 0 0 0
SMALL
GASTEIGER

@<TRIPOS>ATOM
      1 C         139.6662  137.5599  164.9571 C.3     1  UNL1        0.0337
      2 C         139.0899  138.8486  164.4498 C.3     1  UNL1        0.1467
      3 N         138.8300  138.0584  163.2016 N.am    1  UNL1       -0.2806
      4 C         138.1726  138.9676  162.2060 C.2     1  UNL1        0.3106
      5 O         137.7379  138.5909  160.8207 O.2     1  UNL1       -0.2521
      6 N         138.0263  140.3196  162.8389 N.am    1  UNL1       -0.2050
      7 C         138.5932  140.2461  164.2257 C.2     1  UNL1        0.2527
      8 O         138.6529  141.3723  165.2147 O.2     1  UNL1       -0.2723
      9 H         139.0519  137.1097  163.0605 H       1  UNL1        0.1516
     10 C         139.4704  139.3693  165.8042 C.ar    1  UNL1        0.0021
     11 C         138.5037  139.2654  166.9464 C.ar    1  UNL1       -0.0007
     12 C         138.8841  139.7861  168.3006 C.ar    1  UNL1        0.0190
     13 C         140.2314  140.4107  168.5127 C.ar    1  UNL1        0.0862
     14 C         141.1981  140.5145  167.3705 C.ar    1  UNL1        0.0190
     15 C         140.8176  139.9938  166.0163 C.ar    1  UNL1       -0.0007
     16 N         140.6118  140.9314  169.8671 N.ar    1  UNL1       -0.1886
     17 C         141.9165  140.6944  170.5682 C.ar    1  UNL1        0.2258
     18 N         141.8655  141.3970  171.8925 N.ar    1  UNL1       -0.1045
     19 N         140.5291  142.0682  172.0098 N.ar    1  UNL1       -0.0222
     20 N         139.7544  141.7805  170.7580 N.ar    1  UNL1       -0.0385
     21 C         137.4195  141.5323  162.1976 C.3     1  UNL1        0.1714
     22 C         138.2867  142.4923  161.4383 C.2     1  UNL1        0.1957
     23 O         138.0746  142.6920  159.9668 O.2     1  UNL1       -0.2894
     24 C         139.3659  143.2525  162.1504 C.ar    1  UNL1        0.0640
     25 C         140.8069  142.9904  161.8263 C.ar    1  UNL1        0.0075
     26 C         141.8861  143.7507  162.5385 C.ar    1  UNL1        0.0299
     27 C         141.5246  144.7730  163.5748 C.ar    1  UNL1        0.1424
     28 F         142.6038  145.5333  164.2869 F       1  UNL1       -0.2041
     29 C         140.0836  145.0352  163.8989 C.ar    1  UNL1        0.0593
     30 C         139.0044  144.2750  163.1868 C.ar    1  UNL1        0.1451
     31 F         137.5635  144.5371  163.5110 F       1  UNL1       -0.2040
@<TRIPOS>BOND
     1     1     2    1
     2     2    10    1
     3    10    11   ar
     4    11    12   ar
     5    12    13   ar
     6    13    16    1
     7    16    17   ar
     8    17    18   ar
     9    18    19   ar
    10    19    20   ar
    11    13    14   ar
    12    14    15   ar
    13     2     3    1
    14     3     4   am
    15     4     5    2
    16     4     6   am
    17     6    21    1
    18    21    22    1
    19    22    23    2
    20    22    24    1
    21    24    25   ar
    22    25    26   ar
    23    26    27   ar
    24    27    28    1
    25    27    29   ar
    26    29    30   ar
    27    30    31    1
    28     6     7   am
    29     7     8    2
    30     7     2    1
    31    15    10   ar
    32    30    24   ar
    33    20    16   ar
    34     3     9    1
@<TRIPOS>MOLECULE
*****
 31 34 0 0 0
SMALL
GASTEIGER

@<TRIPOS>ATOM
      1 C         145.2007  139.3685  164.3140 C.3     1  UNL1        0.0337
      2 C         143.8858  139.6518  163.6501 C.3     1  UNL1        0.1467
      3 N         144.4715  138.8710  162.5111 N.am    1  UNL1       -0.2806
      4 C         143.4535  138.8226  161.4105 C.2     1  UNL1        0.3106
      5 O         143.6210  138.1426  160.0840 O.2     1  UNL1       -0.2521
      6 N         142.2388  139.5735  161.8692 N.am    1  UNL1       -0.2050
      7 C         142.5060  140.0860  163.2534 C.2     1  UNL1        0.2527
      8 O         141.5594  140.8913  164.0934 O.2     1  UNL1       -0.2723
      9 H         145.3668  138.4620  162.4897 H       1  UNL1        0.1516
     10 C         143.5751  140.3734  164.9279 C.ar    1  UNL1        0.0021
     11 C         142.9485  139.6347  166.0732 C.ar    1  UNL1       -0.0007
     12 C         142.6378  140.3563  167.3509 C.ar    1  UNL1        0.0190
     13 C         142.9537  141.8167  167.4834 C.ar    1  UNL1        0.0862
     14 C         143.5803  142.5554  166.3382 C.ar    1  UNL1        0.0190
     15 C         143.8910  141.8338  165.0604 C.ar    1  UNL1       -0.0007
     16 N         142.6430  142.5383  168.7612 N.ar    1  UNL1       -0.1886
     17 C         141.2827  142.9739  169.2195 C.ar    1  UNL1        0.2258
     18 N         141.4369  143.6558  170.5466 N.ar    1  UNL1       -0.1045
     19 N         142.8926  143.6417  170.9085 N.ar    1  UNL1       -0.0222
     20 N         143.6379  142.9511  169.8051 N.ar    1  UNL1       -0.0385
     21 C         140.9782  139.7763  161.0820 C.3     1  UNL1        0.1714
     22 C         139.7452  138.9942  161.4259 C.2     1  UNL1        0.1957
     23 O         139.0097  138.2442  160.3551 O.2     1  UNL1       -0.2894
     24 C         139.2478  138.9621  162.8406 C.ar    1  UNL1        0.0640
     25 C         139.5234  137.7681  163.7057 C.ar    1  UNL1        0.0075
     26 C         139.0260  137.7360  165.1204 C.ar    1  UNL1        0.0299
     27 C         138.2530  138.8980  165.6702 C.ar    1  UNL1        0.1424
     28 F         137.7556  138.8659  167.0850 F       1  UNL1       -0.2041
     29 C         137.9774  140.0920  164.8052 C.ar    1  UNL1        0.0593
     30 C         138.4748  140.1242  163.3905 C.ar    1  UNL1        0.1451
     31 F         138.1992  141.3182  162.5254 F       1  UNL1       -0.2040
@<TRIPOS>BOND
     1     1     2    1
     2     2    10    1
     3    10    11   ar
     4    11    12   ar
     5    12    13   ar
     6    13    16    1
     7    16    17   ar
     8    17    18   ar
     9    18    19   ar
    10    19    20   ar
    11    13    14   ar
    12    14    15   ar
    13     2     3    1
    14     3     4   am
    15     4     5    2
    16     4     6   am
    17     6    21    1
    18    21    22    1
    19    22    23    2
    20    22    24    1
    21    24    25   ar
    22    25    26   ar
    23    26    27   ar
    24    27    28    1
    25    27    29   ar
    26    29    30   ar
    27    30    31    1
    28     6     7   am
    29     7     8    2
    30     7     2    1
    31    15    10   ar
    32    30    24   ar
    33    20    16   ar
    34     3     9    1
@<TRIPOS>MOLECULE
*****
 31 34 0 0 0
SMALL
GASTEIGER

@<TRIPOS>ATOM
      1 C         137.7999  140.8038  164.2913 C.3     1  UNL1        0.0337
      2 C         138.9827  139.9063  164.0782 C.3     1  UNL1        0.1467
      3 N         138.3653  139.6745  162.7309 N.am    1  UNL1       -0.2806
      4 C         139.2439  138.7214  161.9762 C.2     1  UNL1        0.3106
      5 O         139.0041  138.2146  160.5850 O.2     1  UNL1       -0.2521
      6 N         140.4043  138.3641  162.8570 N.am    1  UNL1       -0.2050
      7 C         140.2429  139.0965  164.1561 C.2     1  UNL1        0.2527
      8 O         141.1776  139.0305  165.3275 O.2     1  UNL1       -0.2723
      9 H         137.5300  140.0772  162.4001 H       1  UNL1        0.1516
     10 C         139.3528  140.3258  165.4700 C.ar    1  UNL1        0.0021
     11 C         138.9185  139.4982  166.6432 C.ar    1  UNL1       -0.0007
     12 C         139.2887  139.9177  168.0350 C.ar    1  UNL1        0.0190
     13 C         140.0931  141.1648  168.2535 C.ar    1  UNL1        0.0862
     14 C         140.5274  141.9923  167.0803 C.ar    1  UNL1        0.0190
     15 C         140.1572  141.5729  165.6885 C.ar    1  UNL1       -0.0007
     16 N         140.4632  141.5842  169.6453 N.ar    1  UNL1       -0.1886
     17 C         141.8568  141.7360  170.1792 C.ar    1  UNL1        0.2258
     18 N         141.7597  142.1712  171.6114 N.ar    1  UNL1       -0.1045
     19 N         140.3060  142.2883  171.9627 N.ar    1  UNL1       -0.0222
     20 N         139.5048  141.9255  170.7476 N.ar    1  UNL1       -0.0385
     21 C         141.5287  137.4373  162.5011 C.3     1  UNL1        0.1714
     22 C         142.7103  137.9518  161.7335 C.2     1  UNL1        0.1957
     23 O         143.0293  137.3877  160.3807 O.2     1  UNL1       -0.2894
     24 C         143.5729  139.0304  162.3186 C.ar    1  UNL1        0.0640
     25 C         144.1722  138.8542  163.6824 C.ar    1  UNL1        0.0075
     26 C         145.0348  139.9329  164.2676 C.ar    1  UNL1        0.0299
     27 C         145.2981  141.1877  163.4891 C.ar    1  UNL1        0.1424
     28 F         146.1607  142.2663  164.0743 F       1  UNL1       -0.2041
     29 C         144.6987  141.3639  162.1254 C.ar    1  UNL1        0.0593
     30 C         143.8362  140.2853  161.5402 C.ar    1  UNL1        0.1451
     31 F         143.2368  140.4615  160.1764 F       1  UNL1       -0.2040
@<TRIPOS>BOND
     1     1     2    1
     2     2    10    1
     3    10    11   ar
     4    11    12   ar
     5    12    13   ar
     6    13    16    1
     7    16    17   ar
     8    17    18   ar
     9    18    19   ar
    10    19    20   ar
    11    13    14   ar
    12    14    15   ar
    13     2     3    1
    14     3     4   am
    15     4     5    2
    16     4     6   am
    17     6    21    1
    18    21    22    1
    19    22    23    2
    20    22    24    1
    21    24    25   ar
    22    25    26   ar
    23    26    27   ar
    24    27    28    1
    25    27    29   ar
    26    29    30   ar
    27    30    31    1
    28     6     7   am
    29     7     8    2
    30     7     2    1
    31    15    10   ar
    32    30    24   ar
    33    20    16   ar
    34     3     9    1
@<TRIPOS>MOLECULE
*****
 31 34 0 0 0
SMALL
GASTEIGER

@<TRIPOS>ATOM
      1 C         139.5896  137.5355  164.9652 C.3     1  UNL1        0.0337
      2 C         139.0628  138.8419  164.4497 C.3     1  UNL1        0.1467
      3 N         138.7807  138.0564  163.2034 N.am    1  UNL1       -0.2806
      4 C         138.1615  138.9844  162.2008 C.2     1  UNL1        0.3106
      5 O         137.7204  138.6178  160.8148 O.2     1  UNL1       -0.2521
      6 N         138.0610  140.3436  162.8274 N.am    1  UNL1       -0.2050
      7 C         138.6180  140.2555  164.2173 C.2     1  UNL1        0.2527
      8 O         138.7135  141.3830  165.2020 O.2     1  UNL1       -0.2723
      9 H         138.9688  137.0996  163.0673 H       1  UNL1        0.1516
     10 C         139.4551  139.3543  165.8038 C.ar    1  UNL1        0.0021
     11 C         140.8113  139.9602  166.0125 C.ar    1  UNL1       -0.0007
     12 C         141.2035  140.4726  167.3666 C.ar    1  UNL1        0.0190
     13 C         140.2395  140.3790  168.5120 C.ar    1  UNL1        0.0862
     14 C         138.8833  139.7731  168.3034 C.ar    1  UNL1        0.0190
     15 C         138.4911  139.2608  166.9493 C.ar    1  UNL1       -0.0007
     16 N         140.6318  140.8914  169.8662 N.ar    1  UNL1       -0.1886
     17 C         141.9282  140.6197  170.5701 C.ar    1  UNL1        0.2258
     18 N         141.8943  141.3258  171.8930 N.ar    1  UNL1       -0.1045
     19 N         140.5767  142.0339  172.0068 N.ar    1  UNL1       -0.0222
     20 N         139.7965  141.7654  170.7541 N.ar    1  UNL1       -0.0385
     21 C         137.5016  141.5746  162.1781 C.3     1  UNL1        0.1714
     22 C         138.4196  142.5473  161.4990 C.2     1  UNL1        0.1957
     23 O         138.1552  142.9648  160.0827 O.2     1  UNL1       -0.2894
     24 C         139.6021  143.1025  162.2362 C.ar    1  UNL1        0.0640
     25 C         139.4899  144.4149  162.9538 C.ar    1  UNL1        0.0075
     26 C         140.6723  144.9701  163.6911 C.ar    1  UNL1        0.0299
     27 C         141.9671  144.2130  163.7107 C.ar    1  UNL1        0.1424
     28 F         143.1495  144.7682  164.4479 F       1  UNL1       -0.2041
     29 C         142.0793  142.9006  162.9931 C.ar    1  UNL1        0.0593
     30 C         140.8969  142.3454  162.2558 C.ar    1  UNL1        0.1451
     31 F         141.0091  141.0330  161.5382 F       1  UNL1       -0.2040
@<TRIPOS>BOND
     1     1     2    1
     2     2    10    1
     3    10    11   ar
     4    11    12   ar
     5    12    13   ar
     6    13    16    1
     7    16    17   ar
     8    17    18   ar
     9    18    19   ar
    10    19    20   ar
    11    13    14   ar
    12    14    15   ar
    13     2     3    1
    14     3     4   am
    15     4     5    2
    16     4     6   am
    17     6    21    1
    18    21    22    1
    19    22    23    2
    20    22    24    1
    21    24    25   ar
    22    25    26   ar
    23    26    27   ar
    24    27    28    1
    25    27    29   ar
    26    29    30   ar
    27    30    31    1
    28     6     7   am
    29     7     8    2
    30     7     2    1
    31    15    10   ar
    32    30    24   ar
    33    20    16   ar
    34     3     9    1
@<TRIPOS>MOLECULE
*****
 31 34 0 0 0
SMALL
GASTEIGER

@<TRIPOS>ATOM
      1 C         145.1027  139.8873  164.5611 C.3     1  UNL1        0.0337
      2 C         143.7861  139.3351  164.1011 C.3     1  UNL1        0.1467
      3 N         144.5290  139.0485  162.8299 N.am    1  UNL1       -0.2806
      4 C         143.5738  138.4033  161.8702 C.2     1  UNL1        0.3106
      5 O         143.8954  137.9498  160.4770 O.2     1  UNL1       -0.2521
      6 N         142.2405  138.2910  162.5482 N.am    1  UNL1       -0.2050
      7 C         142.3717  138.8670  163.9270 C.2     1  UNL1        0.2527
      8 O         141.2801  138.9586  164.9518 O.2     1  UNL1       -0.2723
      9 H         145.4771  139.2487  162.6561 H       1  UNL1        0.1516
     10 C         143.3184  139.7371  165.4685 C.ar    1  UNL1        0.0021
     11 C         143.3065  138.7327  166.5825 C.ar    1  UNL1       -0.0007
     12 C         142.8388  139.1348  167.9498 C.ar    1  UNL1        0.0190
     13 C         142.3831  140.5413  168.2032 C.ar    1  UNL1        0.0862
     14 C         142.3951  141.5457  167.0892 C.ar    1  UNL1        0.0190
     15 C         142.8627  141.1436  165.7219 C.ar    1  UNL1       -0.0007
     16 N         141.9155  140.9433  169.5706 N.ar    1  UNL1       -0.1886
     17 C         140.8238  140.2823  170.3587 C.ar    1  UNL1        0.2258
     18 N         140.6910  141.0074  171.6651 N.ar    1  UNL1       -0.1045
     19 N         141.7006  142.1166  171.6843 N.ar    1  UNL1       -0.0222
     20 N         142.4574  142.0770  170.3898 N.ar    1  UNL1       -0.0385
     21 C         140.9947  137.7057  161.9520 C.3     1  UNL1        0.1714
     22 C         139.9757  138.6026  161.3137 C.2     1  UNL1        0.1957
     23 O         139.5979  138.4044  159.8757 O.2     1  UNL1       -0.2894
     24 C         139.3347  139.6977  162.1135 C.ar    1  UNL1        0.0640
     25 C         139.4694  141.1254  161.6734 C.ar    1  UNL1        0.0075
     26 C         138.8283  142.2205  162.4732 C.ar    1  UNL1        0.0299
     27 C         138.0525  141.8880  163.7131 C.ar    1  UNL1        0.1424
     28 F         137.4114  142.9832  164.5130 F       1  UNL1       -0.2041
     29 C         137.9177  140.4604  164.1533 C.ar    1  UNL1        0.0593
     30 C         138.5587  139.3653  163.3535 C.ar    1  UNL1        0.1451
     31 F         138.4239  137.9376  163.7936 F       1  UNL1       -0.2040
@<TRIPOS>BOND
     1     1     2    1
     2     2    10    1
     3    10    11   ar
     4    11    12   ar
     5    12    13   ar
     6    13    16    1
     7    16    17   ar
     8    17    18   ar
     9    18    19   ar
    10    19    20   ar
    11    13    14   ar
    12    14    15   ar
    13     2     3    1
    14     3     4   am
    15     4     5    2
    16     4     6   am
    17     6    21    1
    18    21    22    1
    19    22    23    2
    20    22    24    1
    21    24    25   ar
    22    25    26   ar
    23    26    27   ar
    24    27    28    1
    25    27    29   ar
    26    29    30   ar
    27    30    31    1
    28     6     7   am
    29     7     8    2
    30     7     2    1
    31    15    10   ar
    32    30    24   ar
    33    20    16   ar
    34     3     9    1
@<TRIPOS>MOLECULE
*****
 31 34 0 0 0
SMALL
GASTEIGER

@<TRIPOS>ATOM
      1 C         143.0526  144.1995  164.3674 C.3     1  UNL1        0.0337
      2 C         142.7981  142.7807  163.9525 C.3     1  UNL1        0.1467
      3 N         143.2508  143.2592  162.6049 N.am    1  UNL1       -0.2806
      4 C         143.1925  142.0981  161.6572 C.2     1  UNL1        0.3106
      5 O         143.5587  142.1278  160.2029 O.2     1  UNL1       -0.2521
      6 N         142.7038  140.9019  162.4189 N.am    1  UNL1       -0.2050
      7 C         142.4600  141.3238  163.8376 C.2     1  UNL1        0.2527
      8 O         141.9651  140.4433  164.9466 O.2     1  UNL1       -0.2723
      9 H         143.5360  144.1746  162.3817 H       1  UNL1        0.1516
     10 C         142.3986  142.5988  165.3869 C.ar    1  UNL1        0.0021
     11 C         140.9543  142.6929  165.7810 C.ar    1  UNL1       -0.0007
     12 C         140.5549  142.5110  167.2153 C.ar    1  UNL1        0.0190
     13 C         141.5997  142.2351  168.2556 C.ar    1  UNL1        0.0862
     14 C         143.0439  142.1410  167.8616 C.ar    1  UNL1        0.0190
     15 C         143.4434  142.3228  166.4272 C.ar    1  UNL1       -0.0007
     16 N         141.2002  142.0532  169.6900 N.ar    1  UNL1       -0.1886
     17 C         141.3531  140.7970  170.4953 C.ar    1  UNL1        0.2258
     18 N         140.8251  141.0629  171.8739 N.ar    1  UNL1       -0.1045
     19 N         140.3459  142.4836  171.9205 N.ar    1  UNL1       -0.0222
     20 N         140.5778  143.0956  170.5708 N.ar    1  UNL1       -0.0385
     21 C         142.4955  139.5255  161.8602 C.3     1  UNL1        0.1714
     22 C         141.1060  138.9832  161.7009 C.2     1  UNL1        0.1957
     23 O         140.6329  138.5156  160.3565 O.2     1  UNL1       -0.2894
     24 C         140.1897  138.9085  162.8861 C.ar    1  UNL1        0.0640
     25 C         139.1859  139.9966  163.1278 C.ar    1  UNL1        0.0075
     26 C         138.2695  139.9219  164.3131 C.ar    1  UNL1        0.0299
     27 C         138.3570  138.7591  165.2566 C.ar    1  UNL1        0.1424
     28 F         137.4406  138.6844  166.4418 F       1  UNL1       -0.2041
     29 C         139.3608  137.6710  165.0149 C.ar    1  UNL1        0.0593
     30 C         140.2771  137.7457  163.8297 C.ar    1  UNL1        0.1451
     31 F         141.2809  136.6576  163.5880 F       1  UNL1       -0.2040
@<TRIPOS>BOND
     1     1     2    1
     2     2    10    1
     3    10    11   ar
     4    11    12   ar
     5    12    13   ar
     6    13    16    1
     7    16    17   ar
     8    17    18   ar
     9    18    19   ar
    10    19    20   ar
    11    13    14   ar
    12    14    15   ar
    13     2     3    1
    14     3     4   am
    15     4     5    2
    16     4     6   am
    17     6    21    1
    18    21    22    1
    19    22    23    2
    20    22    24    1
    21    24    25   ar
    22    25    26   ar
    23    26    27   ar
    24    27    28    1
    25    27    29   ar
    26    29    30   ar
    27    30    31    1
    28     6     7   am
    29     7     8    2
    30     7     2    1
    31    15    10   ar
    32    30    24   ar
    33    20    16   ar
    34     3     9    1
@<TRIPOS>MOLECULE
*****
 31 34 0 0 0
SMALL
GASTEIGER

@<TRIPOS>ATOM
      1 C         141.1536  137.1664  164.7079 C.3     1  UNL1        0.0337
      2 C         141.2260  138.4754  163.9789 C.3     1  UNL1        0.1467
      3 N         141.3577  137.6101  162.7608 N.am    1  UNL1       -0.2806
      4 C         141.4808  138.5080  161.5656 C.2     1  UNL1        0.3106
      5 O         141.6328  138.0637  160.1410 O.2     1  UNL1       -0.2521
      6 N         141.4251  139.9282  162.0450 N.am    1  UNL1       -0.2050
      7 C         141.2677  139.9080  163.5366 C.2     1  UNL1        0.2527
      8 O         141.1692  141.1097  164.4291 O.2     1  UNL1       -0.2723
      9 H         141.3625  136.6257  162.7480 H       1  UNL1        0.1516
     10 C         141.0792  139.0670  165.3495 C.ar    1  UNL1        0.0021
     11 C         142.2977  139.3716  166.1694 C.ar    1  UNL1       -0.0007
     12 C         142.1509  139.9632  167.5400 C.ar    1  UNL1        0.0190
     13 C         140.7854  140.2502  168.0906 C.ar    1  UNL1        0.0862
     14 C         139.5668  139.9456  167.2707 C.ar    1  UNL1        0.0190
     15 C         139.7137  139.3540  165.9002 C.ar    1  UNL1       -0.0007
     16 N         140.6386  140.8418  169.4612 N.ar    1  UNL1       -0.1886
     17 C         140.0795  142.1964  169.7816 C.ar    1  UNL1        0.2258
     18 N         140.1204  142.3745  171.2704 N.ar    1  UNL1       -0.1045
     19 N         140.7048  141.1300  171.8702 N.ar    1  UNL1       -0.0222
     20 N         141.0250  140.1828  170.7521 N.ar    1  UNL1       -0.0385
     21 C         141.5117  141.1534  161.1840 C.3     1  UNL1        0.1714
     22 C         142.7948  141.9267  161.1069 C.2     1  UNL1        0.1957
     23 O         143.4629  142.1410  159.7811 O.2     1  UNL1       -0.2894
     24 C         143.4097  142.4856  162.3557 C.ar    1  UNL1        0.0640
     25 C         142.9978  143.8393  162.8535 C.ar    1  UNL1        0.0075
     26 C         143.6127  144.3983  164.1023 C.ar    1  UNL1        0.0299
     27 C         144.6395  143.6036  164.8533 C.ar    1  UNL1        0.1424
     28 F         145.2545  144.1626  166.1021 F       1  UNL1       -0.2041
     29 C         145.0515  142.2499  164.3554 C.ar    1  UNL1        0.0593
     30 C         144.4366  141.6909  163.1067 C.ar    1  UNL1        0.1451
     31 F         144.8486  140.3372  162.6089 F       1  UNL1       -0.2040
@<TRIPOS>BOND
     1     1     2    1
     2     2    10    1
     3    10    11   ar
     4    11    12   ar
     5    12    13   ar
     6    13    16    1
     7    16    17   ar
     8    17    18   ar
     9    18    19   ar
    10    19    20   ar
    11    13    14   ar
    12    14    15   ar
    13     2     3    1
    14     3     4   am
    15     4     5    2
    16     4     6   am
    17     6    21    1
    18    21    22    1
    19    22    23    2
    20    22    24    1
    21    24    25   ar
    22    25    26   ar
    23    26    27   ar
    24    27    28    1
    25    27    29   ar
    26    29    30   ar
    27    30    31    1
    28     6     7   am
    29     7     8    2
    30     7     2    1
    31    15    10   ar
    32    30    24   ar
    33    20    16   ar
    34     3     9    1
@<TRIPOS>MOLECULE
*****
 31 34 0 0 0
SMALL
GASTEIGER

@<TRIPOS>ATOM
      1 C         142.7483  144.5349  164.2542 C.3     1  UNL1        0.0337
      2 C         143.1427  143.1299  163.9073 C.3     1  UNL1        0.1467
      3 N         143.5459  143.7344  162.5951 N.am    1  UNL1       -0.2806
      4 C         144.0879  142.6380  161.7267 C.2     1  UNL1        0.3106
      5 O         144.6070  142.7960  160.3283 O.2     1  UNL1       -0.2521
      6 N         144.0197  141.3559  162.5022 N.am    1  UNL1       -0.2050
      7 C         143.4355  141.6599  163.8500 C.2     1  UNL1        0.2527
      8 O         143.1877  140.6680  164.9476 O.2     1  UNL1       -0.2723
      9 H         143.4684  144.6841  162.3473 H       1  UNL1        0.1516
     10 C         142.6570  142.8192  165.2921 C.ar    1  UNL1        0.0021
     11 C         143.6362  142.7074  166.4229 C.ar    1  UNL1       -0.0007
     12 C         143.1506  142.3967  167.8076 C.ar    1  UNL1        0.0190
     13 C         141.6857  142.1977  168.0616 C.ar    1  UNL1        0.0862
     14 C         140.7065  142.3094  166.9309 C.ar    1  UNL1        0.0190
     15 C         141.1922  142.6202  165.5461 C.ar    1  UNL1       -0.0007
     16 N         141.2000  141.8869  169.4464 N.ar    1  UNL1       -0.1886
     17 C         140.6193  140.5821  169.9050 C.ar    1  UNL1        0.2258
     18 N         140.2702  140.7151  171.3577 N.ar    1  UNL1       -0.1045
     19 N         140.6352  142.1022  171.7970 N.ar    1  UNL1       -0.0222
     20 N         141.2099  142.8264  170.6157 N.ar    1  UNL1       -0.0385
     21 C         144.4586  140.0067  162.0155 C.3     1  UNL1        0.1714
     22 C         143.5628  139.2052  161.1181 C.2     1  UNL1        0.1957
     23 O         143.9742  138.9261  159.7029 O.2     1  UNL1       -0.2894
     24 C         142.2555  138.6829  161.6360 C.ar    1  UNL1        0.0640
     25 C         142.2158  137.8911  162.9094 C.ar    1  UNL1        0.0075
     26 C         140.9085  137.3688  163.4273 C.ar    1  UNL1        0.0299
     27 C         139.6410  137.6382  162.6719 C.ar    1  UNL1        0.1424
     28 F         138.3337  137.1159  163.1898 F       1  UNL1       -0.2041
     29 C         139.6807  138.4300  161.3985 C.ar    1  UNL1        0.0593
     30 C         140.9879  138.9523  160.8806 C.ar    1  UNL1        0.1451
     31 F         141.0276  139.7441  159.6072 F       1  UNL1       -0.2040
@<TRIPOS>BOND
     1     1     2    1
     2     2    10    1
     3    10    11   ar
     4    11    12   ar
     5    12    13   ar
     6    13    16    1
     7    16    17   ar
     8    17    18   ar
     9    18    19   ar
    10    19    20   ar
    11    13    14   ar
    12    14    15   ar
    13     2     3    1
    14     3     4   am
    15     4     5    2
    16     4     6   am
    17     6    21    1
    18    21    22    1
    19    22    23    2
    20    22    24    1
    21    24    25   ar
    22    25    26   ar
    23    26    27   ar
    24    27    28    1
    25    27    29   ar
    26    29    30   ar
    27    30    31    1
    28     6     7   am
    29     7     8    2
    30     7     2    1
    31    15    10   ar
    32    30    24   ar
    33    20    16   ar
    34     3     9    1
