@<TRIPOS>MOLECULE
*****
 35 38 0 0 0
SMALL
GASTEIGER

@<TRIPOS>ATOM
      1 C         142.9860  141.8223  165.4134 C.ar    1  UNL1        0.1447
      2 N         144.3953  141.4238  165.0894 N.ar    1  UNL1       -0.2083
      3 C         145.1455  142.1367  164.0037 C.ar    1  UNL1        0.2000
      4 N         144.4864  143.2481  163.2419 N.ar    1  UNL1       -0.2238
      5 C         143.0771  143.6466  163.5658 C.ar    1  UNL1        0.0890
      6 C         142.4180  144.7581  162.8040 C.ar    1  UNL1        0.0593
      7 C         141.0087  145.1566  163.1280 C.ar    1  UNL1        0.1739
      8 C         140.2584  144.4437  164.2138 C.ar    1  UNL1        0.1724
      9 C         140.9175  143.3323  164.9756 C.ar    1  UNL1        0.0443
     10 C         142.3269  142.9338  164.6516 C.ar    1  UNL1        0.0532
     11 C         142.4915  141.4521  167.9370 C.2     1  UNL1        0.2577
     12 O         143.4975  142.5075  168.2890 O.2     1  UNL1       -0.2692
     13 N         142.2357  141.1094  166.4992 N.am    1  UNL1       -0.2185
     14 C         141.2298  140.0540  166.1472 C.ar    1  UNL1        0.0607
     15 C         139.7908  140.2314  166.5315 C.ar    1  UNL1        0.0176
     16 C         138.7848  139.1759  166.1795 C.ar    1  UNL1        0.0318
     17 C         139.2178  137.9430  165.4432 C.ar    1  UNL1        0.1507
     18 F         138.2118  136.8875  165.0912 F       1  UNL1       -0.2033
     19 C         140.6568  137.7654  165.0588 C.ar    1  UNL1        0.0863
     20 CL        141.0898  136.5325  164.3225 Cl      1  UNL1       -0.0799
     21 C         141.6628  138.8209  165.4108 C.ar    1  UNL1        0.0289
     22 C         142.3093  139.4921  169.6327 C.2     1  UNL1        0.0048
     23 C         141.7412  140.7392  169.0228 C.2     1  UNL1        0.0586
     24 O         140.3496  146.2680  162.3662 O.3     1  UNL1       -0.4683
     25 C         139.6981  145.9879  161.0445 C.3     1  UNL1        0.2526
     26 O         138.8491  144.8422  164.5378 O.3     1  UNL1       -0.4724
     27 C         137.7219  143.8857  164.2837 C.3     1  UNL1        0.2070
     28 C         137.7939  142.9316  163.1285 C.3     1  UNL1        0.0646
     29 C         137.6011  141.4617  163.3567 C.3     1  UNL1        0.0761
     30 N         138.5469  140.4760  162.7369 N.3     1  UNL1       -0.2683
     31 C         139.9988  140.8219  162.5872 C.3     1  UNL1        0.1046
     32 C         140.9446  139.8364  161.9675 C.3     1  UNL1        0.1595
     33 O         140.4385  138.5049  161.4975 O.3     1  UNL1       -0.3508
     34 C         138.9866  138.1590  161.6471 C.3     1  UNL1        0.1595
     35 C         138.0408  139.1446  162.2669 C.3     1  UNL1        0.1046
@<TRIPOS>BOND
     1    22    23    2
     2    23    11    1
     3    11    12    2
     4    11    13   am
     5    13    14    1
     6    14    15   ar
     7    15    16   ar
     8    16    17   ar
     9    17    18    1
    10    17    19   ar
    11    19    20    1
    12    19    21   ar
    13    13     1    1
    14     1     2   ar
    15     2     3   ar
    16     3     4   ar
    17     4     5   ar
    18     5     6   ar
    19     6     7   ar
    20     7    24    1
    21    24    25    1
    22     7     8   ar
    23     8    26    1
    24    26    27    1
    25    27    28    1
    26    28    29    1
    27    29    30    1
    28    30    31    1
    29    31    32    1
    30    32    33    1
    31    33    34    1
    32    34    35    1
    33     8     9   ar
    34     9    10   ar
    35    21    14   ar
    36    10     1   ar
    37    10     5   ar
    38    35    30    1
@<TRIPOS>MOLECULE
*****
 35 38 0 0 0
SMALL
GASTEIGER

@<TRIPOS>ATOM
      1 C         142.4053  140.1931  165.1672 C.ar    1  UNL1        0.1447
      2 N         143.4306  139.1048  165.0475 N.ar    1  UNL1       -0.2083
      3 C         144.4684  139.1678  163.9663 C.ar    1  UNL1        0.2000
      4 N         144.4808  140.3190  163.0048 N.ar    1  UNL1       -0.2238
      5 C         143.4556  141.4072  163.1244 C.ar    1  UNL1        0.0890
      6 C         143.4680  142.5584  162.1629 C.ar    1  UNL1        0.0593
      7 C         142.4427  143.6467  162.2826 C.ar    1  UNL1        0.1739
      8 C         141.4049  143.5838  163.3638 C.ar    1  UNL1        0.1724
      9 C         141.3924  142.4326  164.3254 C.ar    1  UNL1        0.0443
     10 C         142.4178  141.3443  164.2057 C.ar    1  UNL1        0.0532
     11 C         140.0614  139.4375  165.9950 C.2     1  UNL1        0.2577
     12 O         139.7931  138.8077  164.6604 O.2     1  UNL1       -0.2692
     13 N         141.3675  140.1302  166.2485 N.am    1  UNL1       -0.2185
     14 C         141.6359  140.7601  167.5831 C.ar    1  UNL1        0.0607
     15 C         142.6053  140.1210  168.5327 C.ar    1  UNL1        0.0176
     16 C         142.8736  140.7509  169.8674 C.ar    1  UNL1        0.0318
     17 C         142.1725  142.0198  170.2524 C.ar    1  UNL1        0.1507
     18 F         142.4409  142.6497  171.5870 F       1  UNL1       -0.2033
     19 C         141.2030  142.6589  169.3028 C.ar    1  UNL1        0.0863
     20 CL        140.5020  143.9278  169.6878 Cl      1  UNL1       -0.0799
     21 C         140.9347  142.0291  167.9681 C.ar    1  UNL1        0.0289
     22 C         137.7652  138.5867  166.8631 C.2     1  UNL1        0.0048
     23 C         139.0236  139.3747  167.0763 C.2     1  UNL1        0.0586
     24 O         142.4552  144.7979  161.3210 O.3     1  UNL1       -0.4683
     25 C         141.4725  144.8399  160.1885 C.3     1  UNL1        0.2526
     26 O         140.3796  144.6721  163.4835 O.3     1  UNL1       -0.4724
     27 C         139.4271  144.6811  164.6423 C.3     1  UNL1        0.2070
     28 C         138.0469  144.1156  164.4830 C.3     1  UNL1        0.0646
     29 C         137.4695  143.9216  163.1123 C.3     1  UNL1        0.0761
     30 N         137.7423  142.6553  162.3559 N.3     1  UNL1       -0.2683
     31 C         138.3533  142.7160  160.9873 C.3     1  UNL1        0.1046
     32 C         138.6261  141.4498  160.2309 C.3     1  UNL1        0.1595
     33 O         138.2878  140.1229  160.8430 O.3     1  UNL1       -0.3508
     34 C         137.6768  140.0622  162.2116 C.3     1  UNL1        0.1595
     35 C         137.4040  141.3284  162.9680 C.3     1  UNL1        0.1046
@<TRIPOS>BOND
     1    22    23    2
     2    23    11    1
     3    11    12    2
     4    11    13   am
     5    13    14    1
     6    14    15   ar
     7    15    16   ar
     8    16    17   ar
     9    17    18    1
    10    17    19   ar
    11    19    20    1
    12    19    21   ar
    13    13     1    1
    14     1     2   ar
    15     2     3   ar
    16     3     4   ar
    17     4     5   ar
    18     5     6   ar
    19     6     7   ar
    20     7    24    1
    21    24    25    1
    22     7     8   ar
    23     8    26    1
    24    26    27    1
    25    27    28    1
    26    28    29    1
    27    29    30    1
    28    30    31    1
    29    31    32    1
    30    32    33    1
    31    33    34    1
    32    34    35    1
    33     8     9   ar
    34     9    10   ar
    35    21    14   ar
    36    10     1   ar
    37    10     5   ar
    38    35    30    1
@<TRIPOS>MOLECULE
*****
 35 38 0 0 0
SMALL
GASTEIGER

@<TRIPOS>ATOM
      1 C         139.6073  142.7396  164.3952 C.ar    1  UNL1        0.1447
      2 N         138.3825  143.5989  164.2881 N.ar    1  UNL1       -0.2083
      3 C         138.2779  144.6229  163.1971 C.ar    1  UNL1        0.2000
      4 N         139.3980  144.7876  162.2131 N.ar    1  UNL1       -0.2238
      5 C         140.6228  143.9283  162.3202 C.ar    1  UNL1        0.0890
      6 C         141.7429  144.0930  161.3362 C.ar    1  UNL1        0.0593
      7 C         142.9676  143.2337  161.4433 C.ar    1  UNL1        0.1739
      8 C         143.0723  142.2096  162.5344 C.ar    1  UNL1        0.1724
      9 C         141.9522  142.0449  163.5183 C.ar    1  UNL1        0.0443
     10 C         140.7274  142.9043  163.4112 C.ar    1  UNL1        0.0532
     11 C         138.9568  140.4241  165.3777 C.2     1  UNL1        0.2577
     12 O         138.0969  140.1566  164.1781 O.2     1  UNL1       -0.2692
     13 N         139.7120  141.7155  165.4863 N.am    1  UNL1       -0.2185
     14 C         140.5719  141.9830  166.6859 C.ar    1  UNL1        0.0607
     15 C         141.9045  141.3076  166.8190 C.ar    1  UNL1        0.0176
     16 C         142.7644  141.5750  168.0187 C.ar    1  UNL1        0.0318
     17 C         142.2916  142.5179  169.0851 C.ar    1  UNL1        0.1507
     18 F         143.1515  142.7854  170.2847 F       1  UNL1       -0.2033
     19 C         140.9589  143.1934  168.9520 C.ar    1  UNL1        0.0863
     20 CL        140.4861  144.1363  170.0185 Cl      1  UNL1       -0.0799
     21 C         140.0990  142.9259  167.7524 C.ar    1  UNL1        0.0289
     22 C         137.8487  138.6226  166.8867 C.2     1  UNL1        0.0048
     23 C         139.0615  139.4000  166.4688 C.2     1  UNL1        0.0586
     24 O         144.0878  143.3984  160.4593 O.3     1  UNL1       -0.4683
     25 C         144.1432  142.5344  159.2344 C.3     1  UNL1        0.2526
     26 O         144.2971  141.3503  162.6414 O.3     1  UNL1       -0.4724
     27 C         144.8743  141.0317  163.9888 C.3     1  UNL1        0.2070
     28 C         145.0110  139.6038  164.4276 C.3     1  UNL1        0.0646
     29 C         143.8006  138.8357  164.8687 C.3     1  UNL1        0.0761
     30 N         142.7994  138.3666  163.8549 N.3     1  UNL1       -0.2683
     31 C         143.1731  138.3077  162.4034 C.3     1  UNL1        0.1046
     32 C         142.1720  137.8387  161.3896 C.3     1  UNL1        0.1595
     33 O         140.7972  137.4285  161.8274 O.3     1  UNL1       -0.3508
     34 C         140.4236  137.4873  163.2789 C.3     1  UNL1        0.1595
     35 C         141.4246  137.9564  164.2926 C.3     1  UNL1        0.1046
@<TRIPOS>BOND
     1    22    23    2
     2    23    11    1
     3    11    12    2
     4    11    13   am
     5    13    14    1
     6    14    15   ar
     7    15    16   ar
     8    16    17   ar
     9    17    18    1
    10    17    19   ar
    11    19    20    1
    12    19    21   ar
    13    13     1    1
    14     1     2   ar
    15     2     3   ar
    16     3     4   ar
    17     4     5   ar
    18     5     6   ar
    19     6     7   ar
    20     7    24    1
    21    24    25    1
    22     7     8   ar
    23     8    26    1
    24    26    27    1
    25    27    28    1
    26    28    29    1
    27    29    30    1
    28    30    31    1
    29    31    32    1
    30    32    33    1
    31    33    34    1
    32    34    35    1
    33     8     9   ar
    34     9    10   ar
    35    21    14   ar
    36    10     1   ar
    37    10     5   ar
    38    35    30    1
@<TRIPOS>MOLECULE
*****
 35 38 0 0 0
SMALL
GASTEIGER

@<TRIPOS>ATOM
      1 C         142.8712  141.7916  164.6496 C.ar    1  UNL1        0.1447
      2 N         143.7208  142.8781  165.2392 N.ar    1  UNL1       -0.2083
      3 C         143.9322  144.1573  164.4851 C.ar    1  UNL1        0.2000
      4 N         143.2940  144.3501  163.1414 N.ar    1  UNL1       -0.2238
      5 C         142.4444  143.2636  162.5518 C.ar    1  UNL1        0.0890
      6 C         141.8062  143.4563  161.2081 C.ar    1  UNL1        0.0593
      7 C         140.9566  142.3698  160.6185 C.ar    1  UNL1        0.1739
      8 C         140.7452  141.0905  161.3726 C.ar    1  UNL1        0.1724
      9 C         141.3834  140.8977  162.7164 C.ar    1  UNL1        0.0443
     10 C         142.2330  141.9843  163.3059 C.ar    1  UNL1        0.0532
     11 C         143.5172  139.3173  165.1089 C.2     1  UNL1        0.2577
     12 O         144.5861  139.4017  164.0600 O.2     1  UNL1       -0.2692
     13 N         142.6597  140.5122  165.4038 N.am    1  UNL1       -0.2185
     14 C         141.5908  140.4279  166.4527 C.ar    1  UNL1        0.0607
     15 C         141.8022  141.0691  167.7922 C.ar    1  UNL1        0.0176
     16 C         140.7333  140.9847  168.8411 C.ar    1  UNL1        0.0318
     17 C         139.4530  140.2591  168.5506 C.ar    1  UNL1        0.1507
     18 F         138.3841  140.1747  169.5996 F       1  UNL1       -0.2033
     19 C         139.2416  139.6179  167.2111 C.ar    1  UNL1        0.0863
     20 CL        137.9613  138.8923  166.9206 Cl      1  UNL1       -0.0799
     21 C         140.3105  139.7022  166.1622 C.ar    1  UNL1        0.0289
     22 C         144.2605  137.6415  166.9499 C.2     1  UNL1        0.0048
     23 C         143.3058  138.0380  165.8631 C.2     1  UNL1        0.0586
     24 O         140.3184  142.5626  159.2748 O.3     1  UNL1       -0.4683
     25 C         138.8770  142.9667  159.1801 C.3     1  UNL1        0.2526
     26 O         139.8956  140.0040  160.7831 O.3     1  UNL1       -0.4724
     27 C         138.4397  139.9166  161.1337 C.3     1  UNL1        0.2070
     28 C         138.0055  140.0219  162.5656 C.3     1  UNL1        0.0646
     29 C         137.2844  141.2477  163.0425 C.3     1  UNL1        0.0761
     30 N         138.0628  142.4516  163.4841 N.3     1  UNL1       -0.2683
     31 C         138.7557  142.4500  164.8144 C.3     1  UNL1        0.1046
     32 C         139.5341  143.6538  165.2561 C.3     1  UNL1        0.1595
     33 O         139.6195  144.8591  164.3673 O.3     1  UNL1       -0.3508
     34 C         138.9265  144.8607  163.0370 C.3     1  UNL1        0.1595
     35 C         138.1482  143.6569  162.5954 C.3     1  UNL1        0.1046
@<TRIPOS>BOND
     1    22    23    2
     2    23    11    1
     3    11    12    2
     4    11    13   am
     5    13    14    1
     6    14    15   ar
     7    15    16   ar
     8    16    17   ar
     9    17    18    1
    10    17    19   ar
    11    19    20    1
    12    19    21   ar
    13    13     1    1
    14     1     2   ar
    15     2     3   ar
    16     3     4   ar
    17     4     5   ar
    18     5     6   ar
    19     6     7   ar
    20     7    24    1
    21    24    25    1
    22     7     8   ar
    23     8    26    1
    24    26    27    1
    25    27    28    1
    26    28    29    1
    27    29    30    1
    28    30    31    1
    29    31    32    1
    30    32    33    1
    31    33    34    1
    32    34    35    1
    33     8     9   ar
    34     9    10   ar
    35    21    14   ar
    36    10     1   ar
    37    10     5   ar
    38    35    30    1
@<TRIPOS>MOLECULE
*****
 35 38 0 0 0
SMALL
GASTEIGER

@<TRIPOS>ATOM
      1 C         142.6764  141.9190  165.1961 C.ar    1  UNL1        0.1447
      2 N         144.0715  142.3747  165.5059 N.ar    1  UNL1       -0.2083
      3 C         144.5237  143.7426  165.0885 C.ar    1  UNL1        0.2000
      4 N         143.5808  144.6548  164.3613 N.ar    1  UNL1       -0.2238
      5 C         142.1857  144.1992  164.0515 C.ar    1  UNL1        0.0890
      6 C         141.2428  145.1114  163.3243 C.ar    1  UNL1        0.0593
      7 C         139.8477  144.6557  163.0146 C.ar    1  UNL1        0.1739
      8 C         139.3955  143.2877  163.4320 C.ar    1  UNL1        0.1724
      9 C         140.3384  142.3755  164.1592 C.ar    1  UNL1        0.0443
     10 C         141.7335  142.8313  164.4690 C.ar    1  UNL1        0.0532
     11 C         142.3351  139.4003  164.6578 C.2     1  UNL1        0.2577
     12 O         142.8983  139.6175  163.2847 O.2     1  UNL1       -0.2692
     13 N         142.2242  140.5511  165.6136 N.am    1  UNL1       -0.2185
     14 C         141.6609  140.3339  166.9868 C.ar    1  UNL1        0.0607
     15 C         140.1760  140.3428  167.1984 C.ar    1  UNL1        0.0176
     16 C         139.6128  140.1256  168.5716 C.ar    1  UNL1        0.0318
     17 C         140.5345  139.8996  169.7331 C.ar    1  UNL1        0.1507
     18 F         139.9713  139.6824  171.1063 F       1  UNL1       -0.2033
     19 C         142.0195  139.8907  169.5215 C.ar    1  UNL1        0.0863
     20 CL        142.9413  139.6647  170.6831 Cl      1  UNL1       -0.0799
     21 C         142.5828  140.1079  168.1484 C.ar    1  UNL1        0.0289
     22 C         140.5067  137.5555  164.7166 C.2     1  UNL1        0.0048
     23 C         141.8829  138.0324  165.0753 C.2     1  UNL1        0.0586
     24 O         138.9048  145.5679  162.2874 O.3     1  UNL1       -0.4683
     25 C         139.4223  146.4836  161.2180 C.3     1  UNL1        0.2526
     26 O         138.0004  142.8320  163.1223 O.3     1  UNL1       -0.4724
     27 C         137.7717  141.7580  162.1004 C.3     1  UNL1        0.2070
     28 C         137.7492  140.3176  162.5183 C.3     1  UNL1        0.0646
     29 C         137.7987  139.2349  161.4814 C.3     1  UNL1        0.0761
     30 N         139.0040  139.0959  160.5992 N.3     1  UNL1       -0.2683
     31 C         140.2713  138.5103  161.1478 C.3     1  UNL1        0.1046
     32 C         141.4765  138.3712  160.2657 C.3     1  UNL1        0.1595
     33 O         141.4144  138.8178  158.8351 O.3     1  UNL1       -0.3508
     34 C         140.1471  139.4034  158.2866 C.3     1  UNL1        0.1595
     35 C         138.9419  139.5425  159.1686 C.3     1  UNL1        0.1046
@<TRIPOS>BOND
     1    22    23    2
     2    23    11    1
     3    11    12    2
     4    11    13   am
     5    13    14    1
     6    14    15   ar
     7    15    16   ar
     8    16    17   ar
     9    17    18    1
    10    17    19   ar
    11    19    20    1
    12    19    21   ar
    13    13     1    1
    14     1     2   ar
    15     2     3   ar
    16     3     4   ar
    17     4     5   ar
    18     5     6   ar
    19     6     7   ar
    20     7    24    1
    21    24    25    1
    22     7     8   ar
    23     8    26    1
    24    26    27    1
    25    27    28    1
    26    28    29    1
    27    29    30    1
    28    30    31    1
    29    31    32    1
    30    32    33    1
    31    33    34    1
    32    34    35    1
    33     8     9   ar
    34     9    10   ar
    35    21    14   ar
    36    10     1   ar
    37    10     5   ar
    38    35    30    1
@<TRIPOS>MOLECULE
*****
 35 38 0 0 0
SMALL
GASTEIGER

@<TRIPOS>ATOM
      1 C         138.8821  141.6222  162.0707 C.ar    1  UNL1        0.1447
      2 N         137.9168  140.6246  161.5026 N.ar    1  UNL1       -0.2083
      3 C         138.1719  140.0177  160.1548 C.ar    1  UNL1        0.2000
      4 N         139.3922  140.4085  159.3751 N.ar    1  UNL1       -0.2238
      5 C         140.3575  141.4062  159.9432 C.ar    1  UNL1        0.0890
      6 C         141.5779  141.7971  159.1635 C.ar    1  UNL1        0.0593
      7 C         142.5432  142.7948  159.7316 C.ar    1  UNL1        0.1739
      8 C         142.2882  143.4017  161.0794 C.ar    1  UNL1        0.1724
      9 C         141.0678  143.0108  161.8592 C.ar    1  UNL1        0.0443
     10 C         140.1025  142.0131  161.2910 C.ar    1  UNL1        0.0532
     11 C         137.9581  143.5675  163.5241 C.2     1  UNL1        0.2577
     12 O         137.5442  144.2991  162.2817 O.2     1  UNL1       -0.2692
     13 N         138.6271  142.2291  163.4186 N.am    1  UNL1       -0.2185
     14 C         139.0410  141.4976  164.6610 C.ar    1  UNL1        0.0607
     15 C         140.2910  141.8991  165.3865 C.ar    1  UNL1        0.0176
     16 C         140.7049  141.1675  166.6288 C.ar    1  UNL1        0.0318
     17 C         139.8689  140.0345  167.1457 C.ar    1  UNL1        0.1507
     18 F         140.2828  139.3029  168.3881 F       1  UNL1       -0.2033
     19 C         138.6189  139.6329  166.4202 C.ar    1  UNL1        0.0863
     20 CL        137.7829  138.4998  166.9371 Cl      1  UNL1       -0.0799
     21 C         138.2049  140.3645  165.1778 C.ar    1  UNL1        0.0289
     22 C         138.7367  145.0588  165.5040 C.2     1  UNL1        0.0048
     23 C         137.7031  144.1744  164.8720 C.2     1  UNL1        0.0586
     24 O         143.7635  143.1856  158.9518 O.3     1  UNL1       -0.4683
     25 C         144.6946  142.1286  158.4364 C.3     1  UNL1        0.2526
     26 O         143.2534  144.3994  161.6475 O.3     1  UNL1       -0.4724
     27 C         143.8267  144.1920  163.0181 C.3     1  UNL1        0.2070
     28 C         144.6358  142.9643  163.3148 C.3     1  UNL1        0.0646
     29 C         143.9674  141.7415  163.8696 C.3     1  UNL1        0.0761
     30 N         143.5514  140.6316  162.9501 N.3     1  UNL1       -0.2683
     31 C         142.3351  139.8125  163.2656 C.3     1  UNL1        0.1046
     32 C         141.9191  138.7027  162.3463 C.3     1  UNL1        0.1595
     33 O         142.7194  138.4121  161.1114 O.3     1  UNL1       -0.3508
     34 C         143.9358  139.2312  160.7959 C.3     1  UNL1        0.1595
     35 C         144.3518  140.3410  161.7153 C.3     1  UNL1        0.1046
@<TRIPOS>BOND
     1    22    23    2
     2    23    11    1
     3    11    12    2
     4    11    13   am
     5    13    14    1
     6    14    15   ar
     7    15    16   ar
     8    16    17   ar
     9    17    18    1
    10    17    19   ar
    11    19    20    1
    12    19    21   ar
    13    13     1    1
    14     1     2   ar
    15     2     3   ar
    16     3     4   ar
    17     4     5   ar
    18     5     6   ar
    19     6     7   ar
    20     7    24    1
    21    24    25    1
    22     7     8   ar
    23     8    26    1
    24    26    27    1
    25    27    28    1
    26    28    29    1
    27    29    30    1
    28    30    31    1
    29    31    32    1
    30    32    33    1
    31    33    34    1
    32    34    35    1
    33     8     9   ar
    34     9    10   ar
    35    21    14   ar
    36    10     1   ar
    37    10     5   ar
    38    35    30    1
@<TRIPOS>MOLECULE
*****
 35 38 0 0 0
SMALL
GASTEIGER

@<TRIPOS>ATOM
      1 C         143.0750  141.9748  165.2610 C.ar    1  UNL1        0.1447
      2 N         144.4582  141.5323  164.8858 N.ar    1  UNL1       -0.2083
      3 C         145.1909  142.2233  163.7741 C.ar    1  UNL1        0.2000
      4 N         144.5403  143.3566  163.0377 N.ar    1  UNL1       -0.2238
      5 C         143.1571  143.7990  163.4130 C.ar    1  UNL1        0.0890
      6 C         142.5065  144.9324  162.6766 C.ar    1  UNL1        0.0593
      7 C         141.1233  145.3748  163.0518 C.ar    1  UNL1        0.1739
      8 C         140.3905  144.6839  164.1635 C.ar    1  UNL1        0.1724
      9 C         141.0411  143.5505  164.8999 C.ar    1  UNL1        0.0443
     10 C         142.4244  143.1081  164.5246 C.ar    1  UNL1        0.0532
     11 C         142.6340  141.6422  167.7997 C.2     1  UNL1        0.2577
     12 O         143.6585  142.6915  168.1151 O.2     1  UNL1       -0.2692
     13 N         142.3422  141.2839  166.3727 N.am    1  UNL1       -0.2185
     14 C         141.3178  140.2346  166.0573 C.ar    1  UNL1        0.0607
     15 C         139.8910  140.4293  166.4772 C.ar    1  UNL1        0.0176
     16 C         138.8665  139.3800  166.1618 C.ar    1  UNL1        0.0318
     17 C         139.2688  138.1360  165.4265 C.ar    1  UNL1        0.1507
     18 F         138.2444  137.0868  165.1111 F       1  UNL1       -0.2033
     19 C         140.6957  137.9413  165.0066 C.ar    1  UNL1        0.0863
     20 CL        141.0980  136.6974  164.2713 Cl      1  UNL1       -0.0799
     21 C         141.7202  138.9906  165.3220 C.ar    1  UNL1        0.0289
     22 C         141.0456  141.7456  169.8531 C.2     1  UNL1        0.0048
     23 C         141.9013  140.9513  168.9114 C.2     1  UNL1        0.0586
     24 O         140.4727  146.5082  162.3154 O.3     1  UNL1       -0.4683
     25 C         139.4426  146.2253  161.2624 C.3     1  UNL1        0.2526
     26 O         139.0073  145.1263  164.5388 O.3     1  UNL1       -0.4724
     27 C         137.9923  144.1164  164.9860 C.3     1  UNL1        0.2070
     28 C         137.7701  142.8697  164.1822 C.3     1  UNL1        0.0646
     29 C         137.8942  142.9088  162.6878 C.3     1  UNL1        0.0761
     30 N         139.0468  142.2263  162.0128 N.3     1  UNL1       -0.2683
     31 C         139.6738  141.0166  162.6400 C.3     1  UNL1        0.1046
     32 C         140.8264  140.3341  161.9651 C.3     1  UNL1        0.1595
     33 O         141.3520  140.8613  160.6629 O.3     1  UNL1       -0.3508
     34 C         140.7250  142.0710  160.0356 C.3     1  UNL1        0.1595
     35 C         139.5724  142.7535  160.7106 C.3     1  UNL1        0.1046
@<TRIPOS>BOND
     1    22    23    2
     2    23    11    1
     3    11    12    2
     4    11    13   am
     5    13    14    1
     6    14    15   ar
     7    15    16   ar
     8    16    17   ar
     9    17    18    1
    10    17    19   ar
    11    19    20    1
    12    19    21   ar
    13    13     1    1
    14     1     2   ar
    15     2     3   ar
    16     3     4   ar
    17     4     5   ar
    18     5     6   ar
    19     6     7   ar
    20     7    24    1
    21    24    25    1
    22     7     8   ar
    23     8    26    1
    24    26    27    1
    25    27    28    1
    26    28    29    1
    27    29    30    1
    28    30    31    1
    29    31    32    1
    30    32    33    1
    31    33    34    1
    32    34    35    1
    33     8     9   ar
    34     9    10   ar
    35    21    14   ar
    36    10     1   ar
    37    10     5   ar
    38    35    30    1
@<TRIPOS>MOLECULE
*****
 35 38 0 0 0
SMALL
GASTEIGER

@<TRIPOS>ATOM
      1 C         141.6917  143.4787  163.3132 C.ar    1  UNL1        0.1447
      2 N         142.8449  144.3681  163.6723 N.ar    1  UNL1       -0.2083
      3 C         144.0908  144.3547  162.8372 C.ar    1  UNL1        0.2000
      4 N         144.1836  143.4517  161.6430 N.ar    1  UNL1       -0.2238
      5 C         143.0305  142.5622  161.2839 C.ar    1  UNL1        0.0890
      6 C         143.1232  141.6593  160.0897 C.ar    1  UNL1        0.0593
      7 C         141.9701  140.7698  159.7306 C.ar    1  UNL1        0.1739
      8 C         140.7240  140.7833  160.5657 C.ar    1  UNL1        0.1724
      9 C         140.6313  141.6862  161.7599 C.ar    1  UNL1        0.0443
     10 C         141.7845  142.5757  162.1190 C.ar    1  UNL1        0.0532
     11 C         139.3574  144.4821  163.8557 C.2     1  UNL1        0.2577
     12 O         139.5151  145.4586  162.7280 O.2     1  UNL1       -0.2692
     13 N         140.4457  143.4921  164.1482 N.am    1  UNL1       -0.2185
     14 C         140.2880  142.5156  165.2759 C.ar    1  UNL1        0.0607
     15 C         140.9468  142.7825  166.5968 C.ar    1  UNL1        0.0176
     16 C         140.7891  141.8060  167.7244 C.ar    1  UNL1        0.0318
     17 C         139.9727  140.5626  167.5312 C.ar    1  UNL1        0.1507
     18 F         139.8150  139.5861  168.6588 F       1  UNL1       -0.2033
     19 C         139.3139  140.2957  166.2102 C.ar    1  UNL1        0.0863
     20 CL        138.4975  139.0523  166.0170 Cl      1  UNL1       -0.0799
     21 C         139.4715  141.2722  165.0826 C.ar    1  UNL1        0.0289
     22 C         138.1023  145.2036  166.0130 C.2     1  UNL1        0.0048
     23 C         138.1114  144.4955  164.6908 C.2     1  UNL1        0.0586
     24 O         142.0629  139.8668  158.5365 O.3     1  UNL1       -0.4683
     25 C         142.7681  138.5476  158.6467 C.3     1  UNL1        0.2526
     26 O         139.5709  139.8938  160.2066 O.3     1  UNL1       -0.4724
     27 C         139.4458  138.5374  160.8350 C.3     1  UNL1        0.2070
     28 C         140.5913  137.9637  161.6150 C.3     1  UNL1        0.0646
     29 C         140.6620  138.1629  163.1000 C.3     1  UNL1        0.0761
     30 N         141.9777  138.4634  163.7547 N.3     1  UNL1       -0.2683
     31 C         142.1745  138.1697  165.2124 C.3     1  UNL1        0.1046
     32 C         143.4901  138.4702  165.8671 C.3     1  UNL1        0.1595
     33 O         144.6090  139.0643  165.0641 O.3     1  UNL1       -0.3508
     34 C         144.4123  139.3580  163.6064 C.3     1  UNL1        0.1595
     35 C         143.0966  139.0576  162.9516 C.3     1  UNL1        0.1046
@<TRIPOS>BOND
     1    22    23    2
     2    23    11    1
     3    11    12    2
     4    11    13   am
     5    13    14    1
     6    14    15   ar
     7    15    16   ar
     8    16    17   ar
     9    17    18    1
    10    17    19   ar
    11    19    20    1
    12    19    21   ar
    13    13     1    1
    14     1     2   ar
    15     2     3   ar
    16     3     4   ar
    17     4     5   ar
    18     5     6   ar
    19     6     7   ar
    20     7    24    1
    21    24    25    1
    22     7     8   ar
    23     8    26    1
    24    26    27    1
    25    27    28    1
    26    28    29    1
    27    29    30    1
    28    30    31    1
    29    31    32    1
    30    32    33    1
    31    33    34    1
    32    34    35    1
    33     8     9   ar
    34     9    10   ar
    35    21    14   ar
    36    10     1   ar
    37    10     5   ar
    38    35    30    1
@<TRIPOS>MOLECULE
*****
 35 38 0 0 0
SMALL
GASTEIGER

@<TRIPOS>ATOM
      1 C         140.2916  142.9017  164.5933 C.ar    1  UNL1        0.1447
      2 N         139.3187  144.0370  164.4731 N.ar    1  UNL1       -0.2083
      3 C         139.4247  144.9971  163.3256 C.ar    1  UNL1        0.2000
      4 N         140.5034  144.8219  162.2982 N.ar    1  UNL1       -0.2238
      5 C         141.4763  143.6865  162.4183 C.ar    1  UNL1        0.0890
      6 C         142.5551  143.5113  161.3909 C.ar    1  UNL1        0.0593
      7 C         143.5279  142.3759  161.5111 C.ar    1  UNL1        0.1739
      8 C         143.4220  141.4157  162.6587 C.ar    1  UNL1        0.1724
      9 C         142.3432  141.5910  163.6861 C.ar    1  UNL1        0.0443
     10 C         141.3704  142.7264  163.5659 C.ar    1  UNL1        0.0532
     11 C         139.3798  140.6848  165.5953 C.2     1  UNL1        0.2577
     12 O         138.6798  140.3882  164.3023 O.2     1  UNL1       -0.2692
     13 N         140.1857  141.9415  165.7409 N.am    1  UNL1       -0.2185
     14 C         140.8857  142.2381  167.0339 C.ar    1  UNL1        0.0607
     15 C         142.2609  141.6940  167.2843 C.ar    1  UNL1        0.0176
     16 C         142.9609  141.9906  168.5774 C.ar    1  UNL1        0.0318
     17 C         142.2857  142.8313  169.6201 C.ar    1  UNL1        0.1507
     18 F         142.9857  143.1279  170.9131 F       1  UNL1       -0.2033
     19 C         140.9104  143.3754  169.3697 C.ar    1  UNL1        0.0863
     20 CL        140.2352  144.2162  170.4124 Cl      1  UNL1       -0.0799
     21 C         140.2104  143.0788  168.0767 C.ar    1  UNL1        0.0289
     22 C         138.0507  138.8700  166.8954 C.2     1  UNL1        0.0048
     23 C         139.2739  139.7246  166.7429 C.2     1  UNL1        0.0586
     24 O         144.6067  142.2007  160.4837 O.3     1  UNL1       -0.4683
     25 C         144.2707  142.2732  159.0236 C.3     1  UNL1        0.2526
     26 O         144.3948  140.2804  162.7788 O.3     1  UNL1       -0.4724
     27 C         144.0292  138.9213  162.2598 C.3     1  UNL1        0.2070
     28 C         142.8715  138.7641  161.3191 C.3     1  UNL1        0.0646
     29 C         141.6009  138.1238  161.7940 C.3     1  UNL1        0.0761
     30 N         140.2808  138.7790  161.5144 N.3     1  UNL1       -0.2683
     31 C         140.2365  140.1878  161.0012 C.3     1  UNL1        0.1046
     32 C         138.9164  140.8429  160.7215 C.3     1  UNL1        0.1595
     33 O         137.6407  140.0893  160.9550 O.3     1  UNL1       -0.3508
     34 C         137.6851  138.6805  161.4682 C.3     1  UNL1        0.1595
     35 C         139.0051  138.0254  161.7479 C.3     1  UNL1        0.1046
@<TRIPOS>BOND
     1    22    23    2
     2    23    11    1
     3    11    12    2
     4    11    13   am
     5    13    14    1
     6    14    15   ar
     7    15    16   ar
     8    16    17   ar
     9    17    18    1
    10    17    19   ar
    11    19    20    1
    12    19    21   ar
    13    13     1    1
    14     1     2   ar
    15     2     3   ar
    16     3     4   ar
    17     4     5   ar
    18     5     6   ar
    19     6     7   ar
    20     7    24    1
    21    24    25    1
    22     7     8   ar
    23     8    26    1
    24    26    27    1
    25    27    28    1
    26    28    29    1
    27    29    30    1
    28    30    31    1
    29    31    32    1
    30    32    33    1
    31    33    34    1
    32    34    35    1
    33     8     9   ar
    34     9    10   ar
    35    21    14   ar
    36    10     1   ar
    37    10     5   ar
    38    35    30    1
