@<TRIPOS>MOLECULE
*****
 30 32 0 0 0
SMALL
GASTEIGER

@<TRIPOS>ATOM
      1 C         140.7021  137.1887  163.7865 C.3     1  UNL1        0.0722
      2 N         140.6504  140.1344  167.1881 N.pl3   1  UNL1       -0.3023
      3 C         141.9553  139.7169  166.5772 C.3     1  UNL1        0.1082
      4 C         141.9725  138.7350  165.4434 C.3     1  UNL1        0.0938
      5 N         140.6849  138.1706  164.9204 N.3     1  UNL1       -0.2698
      6 C         139.3801  138.5880  165.5312 C.3     1  UNL1        0.0938
      7 C         139.3629  139.5700  166.6651 C.3     1  UNL1        0.1082
      8 C         140.8842  140.6470  169.7243 C.ar    1  UNL1        0.1519
      9 C         140.8670  141.6289  170.8581 C.ar    1  UNL1        0.0382
     10 C         140.5988  143.0801  170.5895 C.ar    1  UNL1        0.0032
     11 C         140.3479  143.5494  169.1871 C.ar    1  UNL1        0.0015
     12 C         140.3651  142.5675  168.0533 C.ar    1  UNL1        0.0176
     13 C         140.6332  141.1163  168.3219 C.ar    1  UNL1        0.0824
     14 C         142.5640  138.7056  170.1234 C.3     1  UNL1        0.2525
     15 O         141.1524  139.1958  169.9929 O.3     1  UNL1       -0.4702
     16 C         140.6234  137.6769  162.3704 C.3     1  UNL1        0.0188
     17 C         139.2916  138.0036  161.7626 C.3     1  UNL1        0.0203
     18 C         139.2114  138.4752  160.3409 C.3     1  UNL1        0.0915
     19 N         138.8711  139.9055  160.0434 N.3     1  UNL1       -0.1794
     20 H         137.9525  139.9036  159.6001 H       1  UNL1        0.1488
     21 S         138.8128  140.9097  161.1561 S.O2    1  UNL1        0.0602
     22 O         140.2889  141.1417  161.0242 O.2     1  UNL1       -0.1530
     23 O         137.3367  140.6778  161.2881 O.2     1  UNL1       -0.1530
     24 C         138.7545  141.9139  162.2689 C.ar    1  UNL1        0.1219
     25 C         139.6327  141.7500  163.4738 C.ar    1  UNL1        0.0196
     26 C         139.5744  142.7542  164.5866 C.ar    1  UNL1       -0.0029
     27 C         138.6378  143.9223  164.4944 C.ar    1  UNL1       -0.0218
     28 C         138.5795  144.9264  165.6071 C.3     1  UNL1        0.0310
     29 C         137.7596  144.0861  163.2895 C.ar    1  UNL1       -0.0029
     30 C         137.8179  143.0819  162.1767 C.ar    1  UNL1        0.0196
@<TRIPOS>BOND
     1    14    15    1
     2    15     8    1
     3     8     9   ar
     4     9    10   ar
     5    10    11   ar
     6    11    12   ar
     7    12    13   ar
     8    13     2    1
     9     2     3    1
    10     3     4    1
    11     4     5    1
    12     5     1    1
    13     1    16    1
    14    16    17    1
    15    17    18    1
    16    18    19    1
    17    19    21    1
    18    21    22    2
    19    21    23    2
    20    21    24    1
    21    24    25   ar
    22    25    26   ar
    23    26    27   ar
    24    27    28    1
    25    27    29   ar
    26    29    30   ar
    27     5     6    1
    28     6     7    1
    29    13     8   ar
    30     7     2    1
    31    30    24   ar
    32    19    20    1
@<TRIPOS>MOLECULE
*****
 30 32 0 0 0
SMALL
GASTEIGER

@<TRIPOS>ATOM
      1 C         139.9073  142.6717  157.8624 C.3     1  UNL1        0.0722
      2 N         139.2744  140.6128  161.8134 N.pl3   1  UNL1       -0.3023
      3 C         138.0950  140.9900  160.9669 C.3     1  UNL1        0.1082
      4 C         138.3059  141.6763  159.6499 C.3     1  UNL1        0.0938
      5 N         139.6963  141.9854  159.1794 N.3     1  UNL1       -0.2698
      6 C         140.8757  141.6082  160.0260 C.3     1  UNL1        0.0938
      7 C         140.6647  140.9219  161.3430 C.3     1  UNL1        0.1082
      8 C         139.4681  138.4924  163.3022 C.ar    1  UNL1        0.1519
      9 C         139.2571  137.8062  164.6192 C.ar    1  UNL1        0.0382
     10 C         138.6414  138.5540  165.7644 C.ar    1  UNL1        0.0032
     11 C         138.2366  139.9881  165.5927 C.ar    1  UNL1        0.0015
     12 C         138.4476  140.6743  164.2757 C.ar    1  UNL1        0.0176
     13 C         139.0634  139.9265  163.1305 C.ar    1  UNL1        0.0824
     14 C         141.5740  137.5948  162.0736 C.3     1  UNL1        0.2525
     15 O         140.0839  137.7446  162.1570 O.3     1  UNL1       -0.4702
     16 C         139.8064  144.1655  157.7705 C.3     1  UNL1        0.0188
     17 C         140.8844  145.0275  158.3577 C.3     1  UNL1        0.0203
     18 C         140.8728  145.3491  159.8228 C.3     1  UNL1        0.0915
     19 N         139.6630  145.0313  160.6508 N.3     1  UNL1       -0.1794
     20 H         139.1522  144.2994  160.1570 H       1  UNL1        0.1488
     21 S         139.8250  144.5660  162.0675 S.O2    1  UNL1        0.0602
     22 O         138.3497  144.3083  162.1516 O.2     1  UNL1       -0.1530
     23 O         141.3003  144.8238  161.9835 O.2     1  UNL1       -0.1530
     24 C         139.9870  144.1007  163.4843 C.ar    1  UNL1        0.1219
     25 C         138.9244  144.4029  164.4991 C.ar    1  UNL1        0.0196
     26 C         139.0864  143.9375  165.9159 C.ar    1  UNL1       -0.0029
     27 C         140.3110  143.1700  166.3178 C.ar    1  UNL1       -0.0218
     28 C         140.4730  142.7047  167.7346 C.3     1  UNL1        0.0310
     29 C         141.3735  142.8679  165.3031 C.ar    1  UNL1       -0.0029
     30 C         141.2115  143.3332  163.8863 C.ar    1  UNL1        0.0196
@<TRIPOS>BOND
     1    14    15    1
     2    15     8    1
     3     8     9   ar
     4     9    10   ar
     5    10    11   ar
     6    11    12   ar
     7    12    13   ar
     8    13     2    1
     9     2     3    1
    10     3     4    1
    11     4     5    1
    12     5     1    1
    13     1    16    1
    14    16    17    1
    15    17    18    1
    16    18    19    1
    17    19    21    1
    18    21    22    2
    19    21    23    2
    20    21    24    1
    21    24    25   ar
    22    25    26   ar
    23    26    27   ar
    24    27    28    1
    25    27    29   ar
    26    29    30   ar
    27     5     6    1
    28     6     7    1
    29    13     8   ar
    30     7     2    1
    31    30    24   ar
    32    19    20    1
@<TRIPOS>MOLECULE
*****
 30 32 0 0 0
SMALL
GASTEIGER

@<TRIPOS>ATOM
      1 C         141.3273  140.6164  161.0714 C.3     1  UNL1        0.0722
      2 N         140.5755  141.2035  165.4691 N.pl3   1  UNL1       -0.3023
      3 C         139.4310  141.2457  164.5003 C.3     1  UNL1        0.1082
      4 C         139.6816  141.0500  163.0345 C.3     1  UNL1        0.0938
      5 N         141.0767  140.8121  162.5372 N.3     1  UNL1       -0.2698
      6 C         142.2212  140.7700  163.5060 C.3     1  UNL1        0.0938
      7 C         141.9705  140.9657  164.9719 C.3     1  UNL1        0.1082
      8 C         139.6775  140.3096  167.7373 C.ar    1  UNL1        0.1519
      9 C         139.4268  140.5054  169.2031 C.ar    1  UNL1        0.0382
     10 C         139.8236  141.7908  169.8668 C.ar    1  UNL1        0.0032
     11 C         140.4709  142.8804  169.0645 C.ar    1  UNL1        0.0015
     12 C         140.7216  142.6846  167.5987 C.ar    1  UNL1        0.0176
     13 C         140.3248  141.3993  166.9350 C.ar    1  UNL1        0.0824
     14 C         137.8305  138.7096  166.8548 C.3     1  UNL1        0.2525
     15 O         139.2807  139.0243  167.0736 O.3     1  UNL1       -0.4702
     16 C         142.6393  141.0297  160.4730 C.3     1  UNL1        0.0188
     17 C         142.6719  141.7224  159.1429 C.3     1  UNL1        0.0203
     18 C         143.2761  143.0902  159.0242 C.3     1  UNL1        0.0915
     19 N         142.4349  144.3062  159.2765 N.3     1  UNL1       -0.1794
     20 H         141.7670  144.3668  158.5079 H       1  UNL1        0.1488
     21 S         141.6450  144.4215  160.5465 S.O2    1  UNL1        0.0602
     22 O         140.3710  144.4142  159.7548 O.2     1  UNL1       -0.1530
     23 O         142.9191  144.4287  161.3382 O.2     1  UNL1       -0.1530
     24 C         140.8552  144.5367  161.8165 C.ar    1  UNL1        0.1219
     25 C         139.3571  144.5930  161.7655 C.ar    1  UNL1        0.0196
     26 C         138.5672  144.7083  163.0355 C.ar    1  UNL1       -0.0029
     27 C         139.2755  144.7673  164.3565 C.ar    1  UNL1       -0.0218
     28 C         138.4857  144.8825  165.6265 C.3     1  UNL1        0.0310
     29 C         140.7736  144.7110  164.4074 C.ar    1  UNL1       -0.0029
     30 C         141.5634  144.5957  163.1374 C.ar    1  UNL1        0.0196
@<TRIPOS>BOND
     1    14    15    1
     2    15     8    1
     3     8     9   ar
     4     9    10   ar
     5    10    11   ar
     6    11    12   ar
     7    12    13   ar
     8    13     2    1
     9     2     3    1
    10     3     4    1
    11     4     5    1
    12     5     1    1
    13     1    16    1
    14    16    17    1
    15    17    18    1
    16    18    19    1
    17    19    21    1
    18    21    22    2
    19    21    23    2
    20    21    24    1
    21    24    25   ar
    22    25    26   ar
    23    26    27   ar
    24    27    28    1
    25    27    29   ar
    26    29    30   ar
    27     5     6    1
    28     6     7    1
    29    13     8   ar
    30     7     2    1
    31    30    24   ar
    32    19    20    1
@<TRIPOS>MOLECULE
*****
 30 32 0 0 0
SMALL
GASTEIGER

@<TRIPOS>ATOM
      1 C         137.7780  138.4584  161.7093 C.3     1  UNL1        0.0722
      2 N         139.5682  139.4207  165.7241 N.pl3   1  UNL1       -0.3023
      3 C         139.5460  138.0035  165.2330 C.3     1  UNL1        0.1082
      4 C         138.9493  137.6827  163.8948 C.3     1  UNL1        0.0938
      5 N         138.3747  138.7792  163.0475 N.3     1  UNL1       -0.2698
      6 C         138.3969  140.1963  163.5386 C.3     1  UNL1        0.0938
      7 C         138.9937  140.5171  164.8769 C.3     1  UNL1        0.1082
      8 C         141.6528  139.8617  167.2108 C.ar    1  UNL1        0.1519
      9 C         142.2495  140.1824  168.5491 C.ar    1  UNL1        0.0382
     10 C         141.3584  140.3829  169.7390 C.ar    1  UNL1        0.0032
     11 C         139.8707  140.2626  169.5906 C.ar    1  UNL1        0.0015
     12 C         139.2739  139.9419  168.2523 C.ar    1  UNL1        0.0176
     13 C         140.1650  139.7414  167.0624 C.ar    1  UNL1        0.0824
     14 C         143.3748  138.4177  165.9073 C.3     1  UNL1        0.2525
     15 O         142.5438  139.6612  166.0209 O.3     1  UNL1       -0.4702
     16 C         137.7836  139.4887  160.6191 C.3     1  UNL1        0.0188
     17 C         138.9790  139.6265  159.7235 C.3     1  UNL1        0.0203
     18 C         139.1497  140.8582  158.8846 C.3     1  UNL1        0.0915
     19 N         139.9936  141.9939  159.3828 N.3     1  UNL1       -0.1794
     20 H         139.9372  142.7323  158.6814 H       1  UNL1        0.1488
     21 S         139.6891  142.6299  160.7067 S.O2    1  UNL1        0.0602
     22 O         138.4575  143.2560  160.1227 O.2     1  UNL1       -0.1530
     23 O         140.9208  142.0039  161.2907 O.2     1  UNL1       -0.1530
     24 C         139.3847  143.2660  162.0306 C.ar    1  UNL1        0.1219
     25 C         140.5045  143.6924  162.9330 C.ar    1  UNL1        0.0196
     26 C         140.2001  144.3284  164.2570 C.ar    1  UNL1       -0.0029
     27 C         138.7758  144.5381  164.6785 C.ar    1  UNL1       -0.0218
     28 C         138.4714  145.1742  166.0024 C.3     1  UNL1        0.0310
     29 C         137.6561  144.1118  163.7761 C.ar    1  UNL1       -0.0029
     30 C         137.9605  143.4757  162.4521 C.ar    1  UNL1        0.0196
@<TRIPOS>BOND
     1    14    15    1
     2    15     8    1
     3     8     9   ar
     4     9    10   ar
     5    10    11   ar
     6    11    12   ar
     7    12    13   ar
     8    13     2    1
     9     2     3    1
    10     3     4    1
    11     4     5    1
    12     5     1    1
    13     1    16    1
    14    16    17    1
    15    17    18    1
    16    18    19    1
    17    19    21    1
    18    21    22    2
    19    21    23    2
    20    21    24    1
    21    24    25   ar
    22    25    26   ar
    23    26    27   ar
    24    27    28    1
    25    27    29   ar
    26    29    30   ar
    27     5     6    1
    28     6     7    1
    29    13     8   ar
    30     7     2    1
    31    30    24   ar
    32    19    20    1
@<TRIPOS>MOLECULE
*****
 30 32 0 0 0
SMALL
GASTEIGER

@<TRIPOS>ATOM
      1 C         141.6694  138.5481  160.7830 C.3     1  UNL1        0.0722
      2 N         141.4338  139.3503  165.2047 N.pl3   1  UNL1       -0.3023
      3 C         141.3770  140.4904  164.2315 C.3     1  UNL1        0.1082
      4 C         141.4555  140.2230  162.7577 C.3     1  UNL1        0.0938
      5 N         141.5909  138.8155  162.2569 N.3     1  UNL1       -0.2698
      6 C         141.6476  137.6754  163.2300 C.3     1  UNL1        0.0938
      7 C         141.5691  137.9429  164.7040 C.3     1  UNL1        0.1082
      8 C         140.0202  139.7999  167.3377 C.ar    1  UNL1        0.1519
      9 C         139.9417  140.0674  168.8115 C.ar    1  UNL1        0.0382
     10 C         141.1982  140.1527  169.6263 C.ar    1  UNL1        0.0032
     11 C         142.5332  139.9705  168.9672 C.ar    1  UNL1        0.0015
     12 C         142.6117  139.7031  167.4934 C.ar    1  UNL1        0.0176
     13 C         141.3552  139.6178  166.6786 C.ar    1  UNL1        0.0824
     14 C         137.7761  138.6153  166.7802 C.3     1  UNL1        0.2525
     15 O         138.7636  139.7146  166.5229 O.3     1  UNL1       -0.4702
     16 C         141.6461  139.6905  159.8112 C.3     1  UNL1        0.0188
     17 C         140.4309  139.9310  158.9655 C.3     1  UNL1        0.0203
     18 C         139.0661  139.6317  159.5111 C.3     1  UNL1        0.0915
     19 N         138.0744  140.7410  159.7010 N.3     1  UNL1       -0.1794
     20 H         137.1487  140.3127  159.6944 H       1  UNL1        0.1488
     21 S         138.1423  141.6065  160.9241 S.O2    1  UNL1        0.0602
     22 O         138.0047  140.3909  161.7920 O.2     1  UNL1       -0.1530
     23 O         138.2800  142.8222  160.0562 O.2     1  UNL1       -0.1530
     24 C         138.2103  142.4721  162.1473 C.ar    1  UNL1        0.1219
     25 C         137.6787  141.9653  163.4552 C.ar    1  UNL1        0.0196
     26 C         137.7467  142.8309  164.6784 C.ar    1  UNL1       -0.0029
     27 C         138.3462  144.2033  164.5936 C.ar    1  UNL1       -0.0218
     28 C         138.4142  145.0689  165.8168 C.3     1  UNL1        0.0310
     29 C         138.8777  144.7101  163.2858 C.ar    1  UNL1       -0.0029
     30 C         138.8098  143.8445  162.0626 C.ar    1  UNL1        0.0196
@<TRIPOS>BOND
     1    14    15    1
     2    15     8    1
     3     8     9   ar
     4     9    10   ar
     5    10    11   ar
     6    11    12   ar
     7    12    13   ar
     8    13     2    1
     9     2     3    1
    10     3     4    1
    11     4     5    1
    12     5     1    1
    13     1    16    1
    14    16    17    1
    15    17    18    1
    16    18    19    1
    17    19    21    1
    18    21    22    2
    19    21    23    2
    20    21    24    1
    21    24    25   ar
    22    25    26   ar
    23    26    27   ar
    24    27    28    1
    25    27    29   ar
    26    29    30   ar
    27     5     6    1
    28     6     7    1
    29    13     8   ar
    30     7     2    1
    31    30    24   ar
    32    19    20    1
@<TRIPOS>MOLECULE
*****
 30 32 0 0 0
SMALL
GASTEIGER

@<TRIPOS>ATOM
      1 C         142.8932  140.1236  159.8732 C.3     1  UNL1        0.0722
      2 N         142.8054  140.4473  164.3606 N.pl3   1  UNL1       -0.3023
      3 C         143.9090  139.6887  163.6849 C.3     1  UNL1        0.1082
      4 C         143.9383  139.5808  162.1891 C.3     1  UNL1        0.0938
      5 N         142.8639  140.2315  161.3690 N.3     1  UNL1       -0.2698
      6 C         141.7604  140.9901  162.0447 C.3     1  UNL1        0.0938
      7 C         141.7311  141.0980  163.5406 C.3     1  UNL1        0.1082
      8 C         142.9737  141.8876  166.5164 C.ar    1  UNL1        0.1519
      9 C         142.9444  141.9955  168.0122 C.ar    1  UNL1        0.0382
     10 C         142.7176  140.7708  168.8481 C.ar    1  UNL1        0.0032
     11 C         142.5200  139.4384  168.1883 C.ar    1  UNL1        0.0015
     12 C         142.5493  139.3305  166.6925 C.ar    1  UNL1        0.0176
     13 C         142.7761  140.5552  165.8565 C.ar    1  UNL1        0.0824
     14 C         144.5892  143.4777  165.2469 C.3     1  UNL1        0.2525
     15 O         143.2006  143.1123  165.6804 O.3     1  UNL1       -0.4702
     16 C         141.7920  140.7310  159.0557 C.3     1  UNL1        0.0188
     17 C         140.8254  139.8470  158.3248 C.3     1  UNL1        0.0203
     18 C         139.5101  139.4932  158.9530 C.3     1  UNL1        0.0915
     19 N         139.4022  138.2871  159.8384 N.3     1  UNL1       -0.1794
     20 H         140.2680  137.7599  159.7247 H       1  UNL1        0.1488
     21 S         139.1888  138.4562  161.3135 S.O2    1  UNL1        0.0602
     22 O         140.4320  137.6619  161.5844 O.2     1  UNL1       -0.1530
     23 O         137.9456  139.2506  161.0425 O.2     1  UNL1       -0.1530
     24 C         138.9754  138.6254  162.7886 C.ar    1  UNL1        0.1219
     25 C         138.2982  139.8573  163.3120 C.ar    1  UNL1        0.0196
     26 C         138.0848  140.0264  164.7871 C.ar    1  UNL1       -0.0029
     27 C         138.5486  138.9637  165.7387 C.ar    1  UNL1       -0.0218
     28 C         138.3352  139.1329  167.2138 C.3     1  UNL1        0.0310
     29 C         139.2258  137.7319  165.2153 C.ar    1  UNL1       -0.0029
     30 C         139.4392  137.5627  163.7402 C.ar    1  UNL1        0.0196
@<TRIPOS>BOND
     1    14    15    1
     2    15     8    1
     3     8     9   ar
     4     9    10   ar
     5    10    11   ar
     6    11    12   ar
     7    12    13   ar
     8    13     2    1
     9     2     3    1
    10     3     4    1
    11     4     5    1
    12     5     1    1
    13     1    16    1
    14    16    17    1
    15    17    18    1
    16    18    19    1
    17    19    21    1
    18    21    22    2
    19    21    23    2
    20    21    24    1
    21    24    25   ar
    22    25    26   ar
    23    26    27   ar
    24    27    28    1
    25    27    29   ar
    26    29    30   ar
    27     5     6    1
    28     6     7    1
    29    13     8   ar
    30     7     2    1
    31    30    24   ar
    32    19    20    1
@<TRIPOS>MOLECULE
*****
 30 32 0 0 0
SMALL
GASTEIGER

@<TRIPOS>ATOM
      1 C         141.6523  142.5796  168.4684 C.3     1  UNL1        0.0722
      2 N         141.5267  142.4056  163.9735 N.pl3   1  UNL1       -0.3023
      3 C         140.3126  142.8371  164.7416 C.3     1  UNL1        0.1082
      4 C         140.3545  142.8951  166.2398 C.3     1  UNL1        0.0938
      5 N         141.6104  142.5216  166.9701 N.3     1  UNL1       -0.2698
      6 C         142.8245  142.0902  166.2020 C.3     1  UNL1        0.0938
      7 C         142.7826  142.0322  164.7037 C.3     1  UNL1        0.1082
      8 C         141.4440  143.6166  161.6763 C.ar    1  UNL1        0.1519
      9 C         141.4021  143.5585  160.1781 C.ar    1  UNL1        0.0382
     10 C         141.4009  142.2316  159.4786 C.ar    1  UNL1        0.0032
     11 C         141.4417  140.9627  160.2775 C.ar    1  UNL1        0.0015
     12 C         141.4836  141.0207  161.7757 C.ar    1  UNL1        0.0176
     13 C         141.4848  142.3477  162.4752 C.ar    1  UNL1        0.0824
     14 C         140.2481  145.8424  162.2809 C.3     1  UNL1        0.2525
     15 O         141.4452  144.9435  162.3758 O.3     1  UNL1       -0.4702
     16 C         140.3774  142.6940  169.2504 C.3     1  UNL1        0.0188
     17 C         139.6763  141.4566  169.7270 C.3     1  UNL1        0.0203
     18 C         139.9049  140.1489  169.0286 C.3     1  UNL1        0.0915
     19 N         138.7614  139.4467  168.3583 N.3     1  UNL1       -0.1794
     20 H         137.9259  140.0018  168.5433 H       1  UNL1        0.1488
     21 S         138.7973  139.1979  166.8795 S.O2    1  UNL1        0.0602
     22 O         140.2443  139.5916  166.8484 O.2     1  UNL1       -0.1530
     23 O         137.3502  138.8042  166.9106 O.2     1  UNL1       -0.1530
     24 C         138.8332  138.9491  165.4007 C.ar    1  UNL1        0.1219
     25 C         138.1806  139.9191  164.4609 C.ar    1  UNL1        0.0196
     26 C         138.2165  139.6703  162.9821 C.ar    1  UNL1       -0.0029
     27 C         138.9050  138.4514  162.4431 C.ar    1  UNL1       -0.0218
     28 C         138.9409  138.2026  160.9644 C.3     1  UNL1        0.0310
     29 C         139.5575  137.4814  163.3830 C.ar    1  UNL1       -0.0029
     30 C         139.5216  137.7302  164.8617 C.ar    1  UNL1        0.0196
@<TRIPOS>BOND
     1    14    15    1
     2    15     8    1
     3     8     9   ar
     4     9    10   ar
     5    10    11   ar
     6    11    12   ar
     7    12    13   ar
     8    13     2    1
     9     2     3    1
    10     3     4    1
    11     4     5    1
    12     5     1    1
    13     1    16    1
    14    16    17    1
    15    17    18    1
    16    18    19    1
    17    19    21    1
    18    21    22    2
    19    21    23    2
    20    21    24    1
    21    24    25   ar
    22    25    26   ar
    23    26    27   ar
    24    27    28    1
    25    27    29   ar
    26    29    30   ar
    27     5     6    1
    28     6     7    1
    29    13     8   ar
    30     7     2    1
    31    30    24   ar
    32    19    20    1
@<TRIPOS>MOLECULE
*****
 30 32 0 0 0
SMALL
GASTEIGER

@<TRIPOS>ATOM
      1 C         141.5103  142.9703  158.1117 C.3     1  UNL1        0.0722
      2 N         142.3847  140.6882  161.8902 N.pl3   1  UNL1       -0.3023
      3 C         140.9665  140.9979  161.5122 C.3     1  UNL1        0.1082
      4 C         140.6750  141.7585  160.2527 C.3     1  UNL1        0.0938
      5 N         141.8018  142.2096  159.3712 N.3     1  UNL1       -0.2698
      6 C         143.2199  141.9000  159.7492 C.3     1  UNL1        0.0938
      7 C         143.5114  141.1393  161.0088 C.3     1  UNL1        0.1082
      8 C         141.5956  139.1192  163.8048 C.ar    1  UNL1        0.1519
      9 C         141.8871  138.3585  165.0643 C.ar    1  UNL1        0.0382
     10 C         143.2590  138.4062  165.6688 C.ar    1  UNL1        0.0032
     11 C         144.3395  139.2146  165.0138 C.ar    1  UNL1        0.0015
     12 C         144.0481  139.9752  163.7543 C.ar    1  UNL1        0.0176
     13 C         142.6761  139.9275  163.1498 C.ar    1  UNL1        0.0824
     14 C         139.7233  137.8032  162.5749 C.3     1  UNL1        0.2525
     15 O         140.2236  139.0715  163.2003 O.3     1  UNL1       -0.4702
     16 C         141.4759  144.4698  158.1320 C.3     1  UNL1        0.0188
     17 C         140.4725  145.1854  158.9869 C.3     1  UNL1        0.0203
     18 C         140.7240  145.3551  160.4559 C.3     1  UNL1        0.0915
     19 N         142.0997  145.1349  161.0117 N.3     1  UNL1       -0.1794
     20 H         142.5375  146.0532  161.0867 H       1  UNL1        0.1488
     21 S         142.2727  144.4629  162.3415 S.O2    1  UNL1        0.0602
     22 O         143.7620  144.5011  162.1671 O.2     1  UNL1       -0.1530
     23 O         140.7834  144.4247  162.5159 O.2     1  UNL1       -0.1530
     24 C         142.4457  143.7909  163.6714 C.ar    1  UNL1        0.1219
     25 C         143.8056  143.7091  164.2992 C.ar    1  UNL1        0.0196
     26 C         143.9785  143.0371  165.6290 C.ar    1  UNL1       -0.0029
     27 C         142.7916  142.4468  166.3310 C.ar    1  UNL1       -0.0218
     28 C         142.9645  141.7748  167.6609 C.3     1  UNL1        0.0310
     29 C         141.4317  142.5286  165.7033 C.ar    1  UNL1       -0.0029
     30 C         141.2588  143.2006  164.3734 C.ar    1  UNL1        0.0196
@<TRIPOS>BOND
     1    14    15    1
     2    15     8    1
     3     8     9   ar
     4     9    10   ar
     5    10    11   ar
     6    11    12   ar
     7    12    13   ar
     8    13     2    1
     9     2     3    1
    10     3     4    1
    11     4     5    1
    12     5     1    1
    13     1    16    1
    14    16    17    1
    15    17    18    1
    16    18    19    1
    17    19    21    1
    18    21    22    2
    19    21    23    2
    20    21    24    1
    21    24    25   ar
    22    25    26   ar
    23    26    27   ar
    24    27    28    1
    25    27    29   ar
    26    29    30   ar
    27     5     6    1
    28     6     7    1
    29    13     8   ar
    30     7     2    1
    31    30    24   ar
    32    19    20    1
@<TRIPOS>MOLECULE
*****
 30 32 0 0 0
SMALL
GASTEIGER

@<TRIPOS>ATOM
      1 C         144.3037  138.9101  162.3436 C.3     1  UNL1        0.0722
      2 N         142.6807  140.9570  166.0078 N.pl3   1  UNL1       -0.3023
      3 C         143.3988  141.7541  164.9595 C.3     1  UNL1        0.1082
      4 C         143.9399  141.0719  163.7382 C.3     1  UNL1        0.0938
      5 N         143.7627  139.5924  163.5650 N.3     1  UNL1       -0.2698
      6 C         143.0446  138.7953  164.6133 C.3     1  UNL1        0.0938
      7 C         142.5036  139.4776  165.8347 C.3     1  UNL1        0.1082
      8 C         140.9384  142.5308  167.1202 C.ar    1  UNL1        0.1519
      9 C         140.3974  143.2131  168.3416 C.ar    1  UNL1        0.0382
     10 C         141.0578  143.0038  169.6720 C.ar    1  UNL1        0.0032
     11 C         142.2591  142.1123  169.7811 C.ar    1  UNL1        0.0015
     12 C         142.8001  141.4301  168.5597 C.ar    1  UNL1        0.0176
     13 C         142.1397  141.6393  167.2292 C.ar    1  UNL1        0.0824
     14 C         139.3915  143.9302  165.5713 C.3     1  UNL1        0.2525
     15 O         140.2780  142.7400  165.7897 O.3     1  UNL1       -0.4702
     16 C         143.9690  139.4373  160.9798 C.3     1  UNL1        0.0188
     17 C         143.2025  138.5841  160.0132 C.3     1  UNL1        0.0203
     18 C         141.7102  138.4798  160.1248 C.3     1  UNL1        0.0915
     19 N         140.9285  139.5798  160.7799 N.3     1  UNL1       -0.1794
     20 H         140.2096  139.8661  160.1154 H       1  UNL1        0.1488
     21 S         140.2358  139.3318  162.0870 S.O2    1  UNL1        0.0602
     22 O         139.8446  137.9612  161.6197 O.2     1  UNL1       -0.1530
     23 O         140.6270  140.7024  162.5544 O.2     1  UNL1       -0.1530
     24 C         139.5431  139.0837  163.3942 C.ar    1  UNL1        0.1219
     25 C         138.8622  140.2135  164.1084 C.ar    1  UNL1        0.0196
     26 C         138.1695  139.9655  165.4155 C.ar    1  UNL1       -0.0029
     27 C         138.1578  138.5877  166.0085 C.ar    1  UNL1       -0.0218
     28 C         137.4651  138.3397  167.3157 C.3     1  UNL1        0.0310
     29 C         138.8387  137.4580  165.2944 C.ar    1  UNL1       -0.0029
     30 C         139.5314  137.7060  163.9872 C.ar    1  UNL1        0.0196
@<TRIPOS>BOND
     1    14    15    1
     2    15     8    1
     3     8     9   ar
     4     9    10   ar
     5    10    11   ar
     6    11    12   ar
     7    12    13   ar
     8    13     2    1
     9     2     3    1
    10     3     4    1
    11     4     5    1
    12     5     1    1
    13     1    16    1
    14    16    17    1
    15    17    18    1
    16    18    19    1
    17    19    21    1
    18    21    22    2
    19    21    23    2
    20    21    24    1
    21    24    25   ar
    22    25    26   ar
    23    26    27   ar
    24    27    28    1
    25    27    29   ar
    26    29    30   ar
    27     5     6    1
    28     6     7    1
    29    13     8   ar
    30     7     2    1
    31    30    24   ar
    32    19    20    1
