@<TRIPOS>MOLECULE
*****
 26 29 0 0 0
SMALL
GASTEIGER

@<TRIPOS>ATOM
      1 C         140.9591  145.4435  160.8637 C.3     1  UNL1        0.0905
      2 N         140.7409  145.1964  162.3270 N.3     1  UNL1       -0.2532
      3 C         141.9139  145.1301  163.2594 C.3     1  UNL1        0.1958
      4 C         142.5523  143.8084  163.5690 C.2     1  UNL1        0.3612
      5 N         141.8787  142.8518  164.5076 N.2     1  UNL1       -0.0428
      6 C         142.5170  141.5301  164.8172 C.2     1  UNL1        0.1815
      7 C         141.8434  140.5734  165.7558 C.3     1  UNL1        0.1000
      8 C         142.4817  139.2518  166.0653 C.2     1  UNL1       -0.0174
      9 C         143.7936  138.8869  165.4362 C.2     1  UNL1       -0.0038
     10 C         144.4672  139.8435  164.4976 C.2     1  UNL1        0.0101
     11 C         143.8289  141.1651  164.1881 C.2     1  UNL1        0.1209
     12 C         144.5025  142.1219  163.2494 C.2     1  UNL1        0.3785
     13 O         145.8144  141.7570  162.6204 O.2     1  UNL1       -0.2376
     14 N         143.8642  143.4435  162.9399 N.am    1  UNL1        0.0335
     15 C         139.3497  145.0156  162.8578 C.3     1  UNL1        0.1608
     16 C         138.7492  143.6432  162.9359 C.ar    1  UNL1        0.2426
     17 N         137.5810  143.1453  162.1376 N.ar    1  UNL1       -0.1099
     18 N         137.3213  141.7222  162.5343 N.ar    1  UNL1       -0.1072
     19 C         138.3291  141.3406  163.5778 C.ar    1  UNL1        0.2496
     20 O         139.2116  142.5279  163.8260 O.2     1  UNL1       -0.4181
     21 C         138.4356  140.0061  164.2543 C.ar    1  UNL1        0.0551
     22 C         138.9565  138.8208  163.4970 C.ar    1  UNL1        0.0047
     23 C         139.0630  137.4862  164.1735 C.ar    1  UNL1        0.0002
     24 C         138.6487  137.3370  165.6074 C.ar    1  UNL1        0.0000
     25 C         138.1279  138.5224  166.3647 C.ar    1  UNL1        0.0002
     26 C         138.0213  139.8569  165.6882 C.ar    1  UNL1        0.0047
@<TRIPOS>BOND
     1     1     2    1
     2     2     3    1
     3     3     4    1
     4     4     5    1
     5     5     6    2
     6     6     7    1
     7     7     8    1
     8     8     9    2
     9     9    10    1
    10    10    11    2
    11    11    12    1
    12    12    13    2
    13    12    14    1
    14     2    15    1
    15    15    16    1
    16    16    17   ar
    17    17    18   ar
    18    18    19   ar
    19    19    21    1
    20    21    22   ar
    21    22    23   ar
    22    23    24   ar
    23    24    25   ar
    24    25    26   ar
    25    19    20   ar
    26    14     4    2
    27    20    16   ar
    28    11     6    1
    29    26    21   ar
@<TRIPOS>MOLECULE
*****
 26 29 0 0 0
SMALL
GASTEIGER

@<TRIPOS>ATOM
      1 C         142.8230  137.7847  161.5457 C.3     1  UNL1        0.0905
      2 N         141.5159  138.1049  162.2082 N.3     1  UNL1       -0.2532
      3 C         140.6353  139.1823  161.6483 C.3     1  UNL1        0.1958
      4 C         140.5320  140.5054  162.3475 C.2     1  UNL1        0.3612
      5 N         139.2251  140.9395  162.9421 N.2     1  UNL1       -0.0428
      6 C         139.1218  142.2626  163.6413 C.2     1  UNL1        0.1815
      7 C         137.8149  142.6966  164.2359 C.3     1  UNL1        0.1000
      8 C         137.7117  144.0197  164.9350 C.2     1  UNL1       -0.0174
      9 C         138.9153  144.9087  165.0396 C.2     1  UNL1       -0.0038
     10 C         140.2222  144.4746  164.4450 C.2     1  UNL1        0.0101
     11 C         140.3255  143.1516  163.7459 C.2     1  UNL1        0.1209
     12 C         141.6324  142.7175  163.1512 C.2     1  UNL1        0.3785
     13 O         142.8361  143.6064  163.2558 O.2     1  UNL1       -0.2376
     14 N         141.7357  141.3944  162.4521 N.am    1  UNL1        0.0335
     15 C         141.0894  137.3476  163.4308 C.3     1  UNL1        0.1608
     16 C         140.3219  138.0444  164.5149 C.ar    1  UNL1        0.2426
     17 N         138.8733  137.8358  164.8432 N.ar    1  UNL1       -0.1099
     18 N         138.5243  138.7346  165.9923 N.ar    1  UNL1       -0.1072
     19 C         139.7573  139.4988  166.3741 C.ar    1  UNL1        0.2496
     20 O         140.8683  139.0722  165.4610 O.2     1  UNL1       -0.4181
     21 C         139.8611  140.5117  167.4756 C.ar    1  UNL1        0.0551
     22 C         140.3944  141.8832  167.1854 C.ar    1  UNL1        0.0047
     23 C         140.4982  142.8961  168.2869 C.ar    1  UNL1        0.0002
     24 C         140.0687  142.5374  169.6786 C.ar    1  UNL1        0.0000
     25 C         139.5354  141.1658  169.9688 C.ar    1  UNL1        0.0002
     26 C         139.4316  140.1529  168.8673 C.ar    1  UNL1        0.0047
@<TRIPOS>BOND
     1     1     2    1
     2     2     3    1
     3     3     4    1
     4     4     5    1
     5     5     6    2
     6     6     7    1
     7     7     8    1
     8     8     9    2
     9     9    10    1
    10    10    11    2
    11    11    12    1
    12    12    13    2
    13    12    14    1
    14     2    15    1
    15    15    16    1
    16    16    17   ar
    17    17    18   ar
    18    18    19   ar
    19    19    21    1
    20    21    22   ar
    21    22    23   ar
    22    23    24   ar
    23    24    25   ar
    24    25    26   ar
    25    19    20   ar
    26    14     4    2
    27    20    16   ar
    28    11     6    1
    29    26    21   ar
@<TRIPOS>MOLECULE
*****
 26 29 0 0 0
SMALL
GASTEIGER

@<TRIPOS>ATOM
      1 C         138.5455  138.5704  161.7439 C.3     1  UNL1        0.0905
      2 N         138.3862  139.0380  163.1602 N.3     1  UNL1       -0.2532
      3 C         137.8061  140.3921  163.4422 C.3     1  UNL1        0.1958
      4 C         138.6786  141.6105  163.3760 C.2     1  UNL1        0.3612
      5 N         140.0808  141.5585  163.9059 N.2     1  UNL1       -0.0428
      6 C         140.9534  142.7769  163.8397 C.2     1  UNL1        0.1815
      7 C         142.3556  142.7248  164.3696 C.3     1  UNL1        0.1000
      8 C         143.2281  143.9432  164.3034 C.2     1  UNL1       -0.0174
      9 C         142.6982  145.2136  163.7074 C.2     1  UNL1       -0.0038
     10 C         141.2959  145.2657  163.1775 C.2     1  UNL1        0.0101
     11 C         140.4235  144.0473  163.2436 C.2     1  UNL1        0.1209
     12 C         139.0211  144.0993  162.7137 C.2     1  UNL1        0.3785
     13 O         138.4913  145.3697  162.1177 O.2     1  UNL1       -0.2376
     14 N         138.1487  142.8809  162.7799 N.am    1  UNL1        0.0335
     15 C         138.8072  138.1514  164.2945 C.3     1  UNL1        0.1608
     16 C         138.7681  138.6659  165.7029 C.ar    1  UNL1        0.2426
     17 N         137.6693  138.4319  166.6969 N.ar    1  UNL1       -0.1099
     18 N         138.0431  139.1261  167.9729 N.ar    1  UNL1       -0.1072
     19 C         139.3729  139.7891  167.7677 C.ar    1  UNL1        0.2496
     20 O         139.8209  139.5047  166.3647 O.2     1  UNL1       -0.4181
     21 C         140.1228  140.5951  168.7865 C.ar    1  UNL1        0.0551
     22 C         140.6452  139.9354  170.0281 C.ar    1  UNL1        0.0047
     23 C         141.3951  140.7413  171.0469 C.ar    1  UNL1        0.0002
     24 C         141.6227  142.2071  170.8240 C.ar    1  UNL1        0.0000
     25 C         141.1004  142.8669  169.5824 C.ar    1  UNL1        0.0002
     26 C         140.3504  142.0609  168.5636 C.ar    1  UNL1        0.0047
@<TRIPOS>BOND
     1     1     2    1
     2     2     3    1
     3     3     4    1
     4     4     5    1
     5     5     6    2
     6     6     7    1
     7     7     8    1
     8     8     9    2
     9     9    10    1
    10    10    11    2
    11    11    12    1
    12    12    13    2
    13    12    14    1
    14     2    15    1
    15    15    16    1
    16    16    17   ar
    17    17    18   ar
    18    18    19   ar
    19    19    21    1
    20    21    22   ar
    21    22    23   ar
    22    23    24   ar
    23    24    25   ar
    24    25    26   ar
    25    19    20   ar
    26    14     4    2
    27    20    16   ar
    28    11     6    1
    29    26    21   ar
@<TRIPOS>MOLECULE
*****
 26 29 0 0 0
SMALL
GASTEIGER

@<TRIPOS>ATOM
      1 C         142.1765  143.9435  158.9936 C.3     1  UNL1        0.0905
      2 N         141.0162  144.1083  159.9298 N.3     1  UNL1       -0.2532
      3 C         141.1295  145.0269  161.1101 C.3     1  UNL1        0.1958
      4 C         140.8999  144.4997  162.4956 C.2     1  UNL1        0.3612
      5 N         141.7358  143.3679  163.0155 N.2     1  UNL1       -0.0428
      6 C         141.5062  142.8407  164.4010 C.2     1  UNL1        0.1815
      7 C         142.3420  141.7089  164.9208 C.3     1  UNL1        0.1000
      8 C         142.1124  141.1818  166.3062 C.2     1  UNL1       -0.0174
      9 C         141.0469  141.7865  167.1717 C.2     1  UNL1       -0.0038
     10 C         140.2110  142.9183  166.6518 C.2     1  UNL1        0.0101
     11 C         140.4406  143.4454  165.2664 C.2     1  UNL1        0.1209
     12 C         139.6048  144.5772  164.7465 C.2     1  UNL1        0.3785
     13 O         138.5392  145.1819  165.6120 O.2     1  UNL1       -0.2376
     14 N         139.8344  145.1044  163.3611 N.am    1  UNL1        0.0335
     15 C         139.7425  143.3545  159.6856 C.3     1  UNL1        0.1608
     16 C         139.0279  142.6989  160.8299 C.ar    1  UNL1        0.2426
     17 N         137.7231  143.1403  161.4237 N.ar    1  UNL1       -0.1099
     18 N         137.3814  142.2009  162.5421 N.ar    1  UNL1       -0.1072
     19 C         138.4751  141.1790  162.6396 C.ar    1  UNL1        0.2496
     20 O         139.4927  141.4867  161.5814 O.2     1  UNL1       -0.4181
     21 C         138.5398  140.0479  163.6226 C.ar    1  UNL1        0.0551
     22 C         138.1818  140.2822  165.0603 C.ar    1  UNL1        0.0047
     23 C         138.2465  139.1512  166.0433 C.ar    1  UNL1        0.0002
     24 C         138.6692  137.7856  165.5887 C.ar    1  UNL1        0.0000
     25 C         139.0272  137.5512  164.1511 C.ar    1  UNL1        0.0002
     26 C         138.9625  138.6823  163.1680 C.ar    1  UNL1        0.0047
@<TRIPOS>BOND
     1     1     2    1
     2     2     3    1
     3     3     4    1
     4     4     5    1
     5     5     6    2
     6     6     7    1
     7     7     8    1
     8     8     9    2
     9     9    10    1
    10    10    11    2
    11    11    12    1
    12    12    13    2
    13    12    14    1
    14     2    15    1
    15    15    16    1
    16    16    17   ar
    17    17    18   ar
    18    18    19   ar
    19    19    21    1
    20    21    22   ar
    21    22    23   ar
    22    23    24   ar
    23    24    25   ar
    24    25    26   ar
    25    19    20   ar
    26    14     4    2
    27    20    16   ar
    28    11     6    1
    29    26    21   ar
@<TRIPOS>MOLECULE
*****
 26 29 0 0 0
SMALL
GASTEIGER

@<TRIPOS>ATOM
      1 C         141.2935  145.3883  158.8191 C.3     1  UNL1        0.0905
      2 N         140.5168  144.7459  159.9299 N.3     1  UNL1       -0.2532
      3 C         140.5083  145.3664  161.2955 C.3     1  UNL1        0.1958
      4 C         141.1298  144.6417  162.4525 C.2     1  UNL1        0.3612
      5 N         140.3062  144.3155  163.6629 N.2     1  UNL1       -0.0428
      6 C         140.9276  143.5907  164.8200 C.2     1  UNL1        0.1815
      7 C         140.1040  143.2645  166.0304 C.3     1  UNL1        0.1000
      8 C         140.7254  142.5398  167.1873 C.2     1  UNL1       -0.0174
      9 C         142.1706  142.1414  167.1338 C.2     1  UNL1       -0.0038
     10 C         142.9942  142.4676  165.9235 C.2     1  UNL1        0.0101
     11 C         142.3727  143.1923  164.7665 C.2     1  UNL1        0.1209
     12 C         143.1964  143.5186  163.5560 C.2     1  UNL1        0.3785
     13 O         144.6415  143.1202  163.5026 O.2     1  UNL1       -0.2376
     14 N         142.5749  144.2433  162.3991 N.am    1  UNL1        0.0335
     15 C         139.7486  143.4830  159.6752 C.3     1  UNL1        0.1608
     16 C         139.0286  142.8030  160.8017 C.ar    1  UNL1        0.2426
     17 N         137.6986  143.2040  161.3677 N.ar    1  UNL1       -0.1099
     18 N         137.3601  142.2514  162.4758 N.ar    1  UNL1       -0.1072
     19 C         138.4809  141.2616  162.5948 C.ar    1  UNL1        0.2496
     20 O         139.5121  141.6025  161.5601 O.2     1  UNL1       -0.4181
     21 C         138.5572  140.1297  163.5761 C.ar    1  UNL1        0.0551
     22 C         138.9640  138.7621  163.1134 C.ar    1  UNL1        0.0047
     23 C         139.0402  137.6302  164.0947 C.ar    1  UNL1        0.0002
     24 C         138.7096  137.8659  165.5388 C.ar    1  UNL1        0.0000
     25 C         138.3028  139.2335  166.0014 C.ar    1  UNL1        0.0002
     26 C         138.2265  140.3654  165.0201 C.ar    1  UNL1        0.0047
@<TRIPOS>BOND
     1     1     2    1
     2     2     3    1
     3     3     4    1
     4     4     5    1
     5     5     6    2
     6     6     7    1
     7     7     8    1
     8     8     9    2
     9     9    10    1
    10    10    11    2
    11    11    12    1
    12    12    13    2
    13    12    14    1
    14     2    15    1
    15    15    16    1
    16    16    17   ar
    17    17    18   ar
    18    18    19   ar
    19    19    21    1
    20    21    22   ar
    21    22    23   ar
    22    23    24   ar
    23    24    25   ar
    24    25    26   ar
    25    19    20   ar
    26    14     4    2
    27    20    16   ar
    28    11     6    1
    29    26    21   ar
@<TRIPOS>MOLECULE
*****
 26 29 0 0 0
SMALL
GASTEIGER

@<TRIPOS>ATOM
      1 C         143.9119  138.3882  161.5051 C.3     1  UNL1        0.0905
      2 N         143.9898  139.5515  162.4488 N.3     1  UNL1       -0.2532
      3 C         143.3648  140.8630  162.0756 C.3     1  UNL1        0.1958
      4 C         142.0390  141.2547  162.6577 C.2     1  UNL1        0.3612
      5 N         141.8418  142.6339  163.2134 N.2     1  UNL1       -0.0428
      6 C         140.5160  143.0256  163.7956 C.2     1  UNL1        0.1815
      7 C         140.3188  144.4048  164.3512 C.3     1  UNL1        0.1000
      8 C         138.9930  144.7963  164.9333 C.2     1  UNL1       -0.0174
      9 C         137.8644  143.8087  164.9597 C.2     1  UNL1       -0.0038
     10 C         138.0615  142.4295  164.4040 C.2     1  UNL1        0.0101
     11 C         139.3873  142.0379  163.8219 C.2     1  UNL1        0.1209
     12 C         139.5845  140.6586  163.2662 C.2     1  UNL1        0.3785
     13 O         138.4559  139.6710  163.2926 O.2     1  UNL1       -0.2376
     14 N         140.9103  140.2670  162.6841 N.am    1  UNL1        0.0335
     15 C         144.6927  139.4033  163.7656 C.3     1  UNL1        0.1608
     16 C         143.9296  139.5705  165.0461 C.ar    1  UNL1        0.2426
     17 N         143.4567  138.4640  165.9415 N.ar    1  UNL1       -0.1099
     18 N         142.7402  139.0831  167.1048 N.ar    1  UNL1       -0.1072
     19 C         142.7702  140.5725  166.9283 C.ar    1  UNL1        0.2496
     20 O         143.5053  140.8736  165.6559 O.2     1  UNL1       -0.4181
     21 C         142.1705  141.5831  167.8605 C.ar    1  UNL1        0.0551
     22 C         140.8254  142.1749  167.5603 C.ar    1  UNL1        0.0047
     23 C         140.2256  143.1855  168.4925 C.ar    1  UNL1        0.0002
     24 C         140.9711  143.6043  169.7249 C.ar    1  UNL1        0.0000
     25 C         142.3163  143.0125  170.0251 C.ar    1  UNL1        0.0002
     26 C         142.9160  142.0019  169.0929 C.ar    1  UNL1        0.0047
@<TRIPOS>BOND
     1     1     2    1
     2     2     3    1
     3     3     4    1
     4     4     5    1
     5     5     6    2
     6     6     7    1
     7     7     8    1
     8     8     9    2
     9     9    10    1
    10    10    11    2
    11    11    12    1
    12    12    13    2
    13    12    14    1
    14     2    15    1
    15    15    16    1
    16    16    17   ar
    17    17    18   ar
    18    18    19   ar
    19    19    21    1
    20    21    22   ar
    21    22    23   ar
    22    23    24   ar
    23    24    25   ar
    24    25    26   ar
    25    19    20   ar
    26    14     4    2
    27    20    16   ar
    28    11     6    1
    29    26    21   ar
@<TRIPOS>MOLECULE
*****
 26 29 0 0 0
SMALL
GASTEIGER

@<TRIPOS>ATOM
      1 C         138.5503  142.8962  156.8566 C.3     1  UNL1        0.0905
      2 N         139.5939  142.6673  157.9094 N.3     1  UNL1       -0.2532
      3 C         140.3063  143.8347  158.5255 C.3     1  UNL1        0.1958
      4 C         140.2915  144.0220  160.0138 C.2     1  UNL1        0.3612
      5 N         139.0104  143.8613  160.7772 N.2     1  UNL1       -0.0428
      6 C         138.9957  144.0487  162.2655 C.2     1  UNL1        0.1815
      7 C         137.7146  143.8880  163.0290 C.3     1  UNL1        0.1000
      8 C         137.6999  144.0753  164.5171 C.2     1  UNL1       -0.0174
      9 C         138.9663  144.4233  165.2418 C.2     1  UNL1       -0.0038
     10 C         140.2474  144.5840  164.4783 C.2     1  UNL1        0.0101
     11 C         140.2621  144.3967  162.9902 C.2     1  UNL1        0.1209
     12 C         141.5432  144.5574  162.2266 C.2     1  UNL1        0.3785
     13 O         142.8096  144.9054  162.9513 O.2     1  UNL1       -0.2376
     14 N         141.5579  144.3701  160.7384 N.am    1  UNL1        0.0335
     15 C         139.9250  141.2711  158.3462 C.3     1  UNL1        0.1608
     16 C         139.1368  140.6221  159.4450 C.ar    1  UNL1        0.2426
     17 N         137.7535  140.0552  159.3214 N.ar    1  UNL1       -0.1099
     18 N         137.3552  139.5088  160.6604 N.ar    1  UNL1       -0.1072
     19 C         138.4922  139.7381  161.6115 C.ar    1  UNL1        0.2496
     20 O         139.5933  140.4261  160.8604 O.2     1  UNL1       -0.4181
     21 C         138.5228  139.3478  163.0595 C.ar    1  UNL1        0.0551
     22 C         138.9024  137.9507  163.4519 C.ar    1  UNL1        0.0047
     23 C         138.9330  137.5604  164.8999 C.ar    1  UNL1        0.0002
     24 C         138.5839  138.5673  165.9556 C.ar    1  UNL1        0.0000
     25 C         138.2043  139.9643  165.5632 C.ar    1  UNL1        0.0002
     26 C         138.1737  140.3546  164.1152 C.ar    1  UNL1        0.0047
@<TRIPOS>BOND
     1     1     2    1
     2     2     3    1
     3     3     4    1
     4     4     5    1
     5     5     6    2
     6     6     7    1
     7     7     8    1
     8     8     9    2
     9     9    10    1
    10    10    11    2
    11    11    12    1
    12    12    13    2
    13    12    14    1
    14     2    15    1
    15    15    16    1
    16    16    17   ar
    17    17    18   ar
    18    18    19   ar
    19    19    21    1
    20    21    22   ar
    21    22    23   ar
    22    23    24   ar
    23    24    25   ar
    24    25    26   ar
    25    19    20   ar
    26    14     4    2
    27    20    16   ar
    28    11     6    1
    29    26    21   ar
@<TRIPOS>MOLECULE
*****
 26 29 0 0 0
SMALL
GASTEIGER

@<TRIPOS>ATOM
      1 C         142.8155  137.6175  161.4877 C.3     1  UNL1        0.0905
      2 N         141.4522  137.8256  162.0775 N.3     1  UNL1       -0.2532
      3 C         140.4654  138.7206  161.3882 C.3     1  UNL1        0.1958
      4 C         140.0127  139.9883  162.0500 C.2     1  UNL1        0.3612
      5 N         141.0231  141.0000  162.5033 N.2     1  UNL1       -0.0428
      6 C         140.5703  142.2677  163.1652 C.2     1  UNL1        0.1815
      7 C         141.5808  143.2794  163.6184 C.3     1  UNL1        0.1000
      8 C         141.1280  144.5470  164.2803 C.2     1  UNL1       -0.0174
      9 C         139.6648  144.8029  164.4888 C.2     1  UNL1       -0.0038
     10 C         138.6544  143.7913  164.0356 C.2     1  UNL1        0.0101
     11 C         139.1071  142.5236  163.3737 C.2     1  UNL1        0.1209
     12 C         138.0967  141.5119  162.9204 C.2     1  UNL1        0.3785
     13 O         136.6335  141.7678  163.1290 O.2     1  UNL1       -0.2376
     14 N         138.5495  140.2442  162.2586 N.am    1  UNL1        0.0335
     15 C         141.0756  137.1388  163.3568 C.3     1  UNL1        0.1608
     16 C         140.3221  137.8870  164.4162 C.ar    1  UNL1        0.2426
     17 N         138.8736  137.7067  164.7617 N.ar    1  UNL1       -0.1099
     18 N         138.5411  138.6552  165.8751 N.ar    1  UNL1       -0.1072
     19 C         139.7841  139.4218  166.2177 C.ar    1  UNL1        0.2496
     20 O         140.8848  138.9470  165.3161 O.2     1  UNL1       -0.4181
     21 C         139.9051  140.4778  167.2762 C.ar    1  UNL1        0.0551
     22 C         139.5190  140.1681  168.6921 C.ar    1  UNL1        0.0047
     23 C         139.6400  141.2240  169.7506 C.ar    1  UNL1        0.0002
     24 C         140.1472  142.5897  169.3931 C.ar    1  UNL1        0.0000
     25 C         140.5333  142.8994  167.9771 C.ar    1  UNL1        0.0002
     26 C         140.4122  141.8434  166.9187 C.ar    1  UNL1        0.0047
@<TRIPOS>BOND
     1     1     2    1
     2     2     3    1
     3     3     4    1
     4     4     5    1
     5     5     6    2
     6     6     7    1
     7     7     8    1
     8     8     9    2
     9     9    10    1
    10    10    11    2
    11    11    12    1
    12    12    13    2
    13    12    14    1
    14     2    15    1
    15    15    16    1
    16    16    17   ar
    17    17    18   ar
    18    18    19   ar
    19    19    21    1
    20    21    22   ar
    21    22    23   ar
    22    23    24   ar
    23    24    25   ar
    24    25    26   ar
    25    19    20   ar
    26    14     4    2
    27    20    16   ar
    28    11     6    1
    29    26    21   ar
@<TRIPOS>MOLECULE
*****
 26 29 0 0 0
SMALL
GASTEIGER

@<TRIPOS>ATOM
      1 C         138.3068  140.4075  158.5352 C.3     1  UNL1        0.0905
      2 N         138.4477  139.6238  159.8064 N.3     1  UNL1       -0.2532
      3 C         137.5480  139.9151  160.9706 C.3     1  UNL1        0.1958
      4 C         137.9654  140.9130  162.0098 C.2     1  UNL1        0.3612
      5 N         138.6467  140.4501  163.2634 N.2     1  UNL1       -0.0428
      6 C         139.0642  141.4481  164.3026 C.2     1  UNL1        0.1815
      7 C         139.7454  140.9851  165.5561 C.3     1  UNL1        0.1000
      8 C         140.1628  141.9831  166.5952 C.2     1  UNL1       -0.0174
      9 C         139.8989  143.4440  166.3808 C.2     1  UNL1       -0.0038
     10 C         139.2177  143.9070  165.1272 C.2     1  UNL1        0.0101
     11 C         138.8003  142.9090  164.0881 C.2     1  UNL1        0.1209
     12 C         138.1189  143.3720  162.8345 C.2     1  UNL1        0.3785
     13 O         137.8550  144.8329  162.6200 O.2     1  UNL1       -0.2376
     14 N         137.7015  142.3740  161.7954 N.am    1  UNL1        0.0335
     15 C         139.4884  138.5488  159.9132 C.3     1  UNL1        0.1608
     16 C         140.6006  138.6782  160.9113 C.ar    1  UNL1        0.2426
     17 N         141.2455  137.5521  161.6636 N.ar    1  UNL1       -0.1099
     18 N         142.3067  138.1343  162.5495 N.ar    1  UNL1       -0.1072
     19 C         142.3176  139.6202  162.3448 C.ar    1  UNL1        0.2496
     20 O         141.2632  139.9563  161.3323 O.2     1  UNL1       -0.4181
     21 C         143.2239  140.5983  163.0318 C.ar    1  UNL1        0.0551
     22 C         144.6750  140.2700  163.2225 C.ar    1  UNL1        0.0047
     23 C         145.5812  141.2480  163.9096 C.ar    1  UNL1        0.0002
     24 C         145.0364  142.5544  164.4060 C.ar    1  UNL1        0.0000
     25 C         143.5853  142.8827  164.2153 C.ar    1  UNL1        0.0002
     26 C         142.6790  141.9047  163.5283 C.ar    1  UNL1        0.0047
@<TRIPOS>BOND
     1     1     2    1
     2     2     3    1
     3     3     4    1
     4     4     5    1
     5     5     6    2
     6     6     7    1
     7     7     8    1
     8     8     9    2
     9     9    10    1
    10    10    11    2
    11    11    12    1
    12    12    13    2
    13    12    14    1
    14     2    15    1
    15    15    16    1
    16    16    17   ar
    17    17    18   ar
    18    18    19   ar
    19    19    21    1
    20    21    22   ar
    21    22    23   ar
    22    23    24   ar
    23    24    25   ar
    24    25    26   ar
    25    19    20   ar
    26    14     4    2
    27    20    16   ar
    28    11     6    1
    29    26    21   ar
