@<TRIPOS>MOLECULE
*****
 31 33 0 0 0
SMALL
GASTEIGER

@<TRIPOS>ATOM
      1 C         142.1077  138.0033  161.2468 C.ar    1  UNL1        0.1425
      2 C         140.6589  137.9506  161.6316 C.ar    1  UNL1        0.0501
      3 C         140.2518  138.1910  163.0551 C.ar    1  UNL1        0.0830
      4 CL        138.8028  138.1382  163.4399 Cl      1  UNL1       -0.0804
      5 C         141.2934  138.4841  164.0938 C.ar    1  UNL1        0.1473
      6 C         142.7423  138.5369  163.7090 C.ar    1  UNL1        0.1616
      7 C         143.1495  138.2965  162.2855 C.ar    1  UNL1        0.0754
      8 N         140.8862  138.7245  165.5173 N.2     1  UNL1       -0.1439
      9 N         140.8763  140.1192  166.0692 N.2     1  UNL1       -0.1448
     10 C         140.4691  140.3596  167.4928 C.ar    1  UNL1        0.1363
     11 C         139.1658  139.8190  168.0016 C.ar    1  UNL1        0.1529
     12 O         138.2695  139.0379  167.0869 O.3     1  UNL1       -0.5039
     13 C         138.7586  140.0594  169.4251 C.ar    1  UNL1        0.0382
     14 C         139.6548  140.8404  170.3398 C.ar    1  UNL1        0.0032
     15 C         140.9582  141.3811  169.8310 C.ar    1  UNL1        0.0017
     16 C         141.8544  142.1622  170.7457 C.ar    1  UNL1        0.0001
     17 C         143.1578  142.7029  170.2369 C.ar    1  UNL1        0.0000
     18 C         143.5649  142.4624  168.8134 C.ar    1  UNL1        0.0001
     19 C         142.6687  141.6814  167.8987 C.ar    1  UNL1        0.0017
     20 C         141.3654  141.1407  168.4075 C.ar    1  UNL1        0.0224
     21 H         138.5238  138.8877  166.1976 H       1  UNL1        0.2923
     22 O         142.5149  137.7629  159.8232 O.3     1  UNL1       -0.4753
     23 C         143.0338  138.8969  158.9899 C.3     1  UNL1        0.2054
     24 C         142.3135  140.2127  158.9818 C.3     1  UNL1        0.0473
     25 C         144.0276  141.4642  160.4804 C.3     1  UNL1        0.0001
     26 C         142.6133  141.2382  160.0347 C.3     1  UNL1        0.0038
     27 O         143.7839  138.8300  164.7478 O.3     1  UNL1       -0.4738
     28 C         145.1039  139.4155  164.3418 C.3     1  UNL1        0.2055
     29 C         145.2047  140.8725  163.9994 C.3     1  UNL1        0.0473
     30 C         144.3000  141.8644  164.6683 C.3     1  UNL1        0.0038
     31 C         143.0002  142.2470  164.0249 C.3     1  UNL1        0.0001
@<TRIPOS>BOND
     1    25    26    1
     2    26    24    1
     3    24    23    1
     4    23    22    1
     5    22     1    1
     6     1     2   ar
     7     2     3   ar
     8     3     4    1
     9     3     5   ar
    10     5     8    1
    11     8     9    2
    12     9    10    1
    13    10    11   ar
    14    11    12    1
    15    11    13   ar
    16    13    14   ar
    17    14    15   ar
    18    15    16   ar
    19    16    17   ar
    20    17    18   ar
    21    18    19   ar
    22    19    20   ar
    23     5     6   ar
    24     6    27    1
    25    27    28    1
    26    28    29    1
    27    29    30    1
    28    30    31    1
    29     6     7   ar
    30     7     1   ar
    31    20    10   ar
    32    20    15   ar
    33    12    21    1
@<TRIPOS>MOLECULE
*****
 31 33 0 0 0
SMALL
GASTEIGER

@<TRIPOS>ATOM
      1 C         140.7542  140.2198  168.5688 C.ar    1  UNL1        0.1425
      2 C         142.0441  139.5780  168.1516 C.ar    1  UNL1        0.0501
      3 C         142.2614  139.1936  166.7181 C.ar    1  UNL1        0.0830
      4 CL        143.5514  138.5517  166.3010 Cl      1  UNL1       -0.0804
      5 C         141.1887  139.4510  165.7017 C.ar    1  UNL1        0.1473
      6 C         139.8987  140.0929  166.1189 C.ar    1  UNL1        0.1616
      7 C         139.6815  140.4773  167.5524 C.ar    1  UNL1        0.0754
      8 N         141.4060  139.0666  164.2682 N.2     1  UNL1       -0.1439
      9 N         142.4327  139.7873  163.4458 N.2     1  UNL1       -0.1448
     10 C         142.6499  139.4028  162.0122 C.ar    1  UNL1        0.1363
     11 C         142.2931  138.0235  161.5433 C.ar    1  UNL1        0.1529
     12 O         141.7190  137.0284  162.5079 O.3     1  UNL1       -0.5039
     13 C         142.5104  137.6390  160.1097 C.ar    1  UNL1        0.0382
     14 C         143.0844  138.6340  159.1452 C.ar    1  UNL1        0.0032
     15 C         143.4412  140.0135  159.6141 C.ar    1  UNL1        0.0017
     16 C         144.0153  141.0084  158.6495 C.ar    1  UNL1        0.0001
     17 C         144.3721  142.3878  159.1184 C.ar    1  UNL1        0.0000
     18 C         144.1548  142.7722  160.5520 C.ar    1  UNL1        0.0001
     19 C         143.5808  141.7773  161.5166 C.ar    1  UNL1        0.0017
     20 C         143.2240  140.3979  161.0476 C.ar    1  UNL1        0.0224
     21 H         141.5833  137.2685  163.4034 H       1  UNL1        0.2923
     22 O         140.5370  140.6043  170.0023 O.3     1  UNL1       -0.4753
     23 C         140.3749  142.0480  170.3754 C.3     1  UNL1        0.2054
     24 C         141.3669  143.0637  169.8911 C.3     1  UNL1        0.0473
     25 C         143.8687  142.3822  169.7277 C.3     1  UNL1        0.0001
     26 C         142.7575  143.0813  170.4533 C.3     1  UNL1        0.0038
     27 O         138.8260  140.3503  165.1025 O.3     1  UNL1       -0.4738
     28 C         138.8493  141.6113  164.2905 C.3     1  UNL1        0.2055
     29 C         137.8484  142.6956  164.5602 C.3     1  UNL1        0.0473
     30 C         138.2402  144.1346  164.4002 C.3     1  UNL1        0.0038
     31 C         138.5290  144.9722  165.6105 C.3     1  UNL1        0.0001
@<TRIPOS>BOND
     1    25    26    1
     2    26    24    1
     3    24    23    1
     4    23    22    1
     5    22     1    1
     6     1     2   ar
     7     2     3   ar
     8     3     4    1
     9     3     5   ar
    10     5     8    1
    11     8     9    2
    12     9    10    1
    13    10    11   ar
    14    11    12    1
    15    11    13   ar
    16    13    14   ar
    17    14    15   ar
    18    15    16   ar
    19    16    17   ar
    20    17    18   ar
    21    18    19   ar
    22    19    20   ar
    23     5     6   ar
    24     6    27    1
    25    27    28    1
    26    28    29    1
    27    29    30    1
    28    30    31    1
    29     6     7   ar
    30     7     1   ar
    31    20    10   ar
    32    20    15   ar
    33    12    21    1
@<TRIPOS>MOLECULE
*****
 31 33 0 0 0
SMALL
GASTEIGER

@<TRIPOS>ATOM
      1 C         138.3912  139.5734  160.1257 C.ar    1  UNL1        0.1425
      2 C         138.9239  138.4622  160.9809 C.ar    1  UNL1        0.0501
      3 C         138.9021  138.5895  162.4753 C.ar    1  UNL1        0.0830
      4 CL        139.4349  137.4782  163.3305 Cl      1  UNL1       -0.0804
      5 C         138.3477  139.8279  163.1146 C.ar    1  UNL1        0.1473
      6 C         137.8149  140.9392  162.2594 C.ar    1  UNL1        0.1616
      7 C         137.8367  140.8120  160.7649 C.ar    1  UNL1        0.0754
      8 N         138.3259  139.9552  164.6090 N.2     1  UNL1       -0.1439
      9 N         139.6139  140.0147  165.3755 N.2     1  UNL1       -0.1448
     10 C         139.5921  140.1420  166.8699 C.ar    1  UNL1        0.1363
     11 C         138.4893  139.5034  167.6610 C.ar    1  UNL1        0.1529
     12 O         137.4081  138.7375  166.9577 O.3     1  UNL1       -0.5039
     13 C         138.4675  139.6307  169.1555 C.ar    1  UNL1        0.0382
     14 C         139.5486  140.3965  169.8588 C.ar    1  UNL1        0.0032
     15 C         140.6515  141.0351  169.0677 C.ar    1  UNL1        0.0017
     16 C         141.7326  141.8010  169.7710 C.ar    1  UNL1        0.0001
     17 C         142.8354  142.4396  168.9799 C.ar    1  UNL1        0.0000
     18 C         142.8572  142.3123  167.4854 C.ar    1  UNL1        0.0001
     19 C         141.7761  141.5464  166.7821 C.ar    1  UNL1        0.0017
     20 C         140.6733  140.9079  167.5732 C.ar    1  UNL1        0.0224
     21 H         137.4217  138.6580  166.0242 H       1  UNL1        0.2923
     22 O         138.4130  139.4461  158.6313 O.3     1  UNL1       -0.4753
     23 C         139.7193  139.2912  157.9107 C.3     1  UNL1        0.2054
     24 C         140.7638  140.3630  158.0125 C.3     1  UNL1        0.0473
     25 C         142.0725  140.2963  160.2559 C.3     1  UNL1        0.0001
     26 C         142.0330  140.1040  158.7688 C.3     1  UNL1        0.0038
     27 O         137.2604  142.1777  162.8986 O.3     1  UNL1       -0.4738
     28 C         137.9341  143.5001  162.6808 C.3     1  UNL1        0.2055
     29 C         139.2063  143.8224  163.4072 C.3     1  UNL1        0.0473
     30 C         139.2238  143.8648  164.9065 C.3     1  UNL1        0.0038
     31 C         138.4751  144.9411  165.6351 C.3     1  UNL1        0.0001
@<TRIPOS>BOND
     1    25    26    1
     2    26    24    1
     3    24    23    1
     4    23    22    1
     5    22     1    1
     6     1     2   ar
     7     2     3   ar
     8     3     4    1
     9     3     5   ar
    10     5     8    1
    11     8     9    2
    12     9    10    1
    13    10    11   ar
    14    11    12    1
    15    11    13   ar
    16    13    14   ar
    17    14    15   ar
    18    15    16   ar
    19    16    17   ar
    20    17    18   ar
    21    18    19   ar
    22    19    20   ar
    23     5     6   ar
    24     6    27    1
    25    27    28    1
    26    28    29    1
    27    29    30    1
    28    30    31    1
    29     6     7   ar
    30     7     1   ar
    31    20    10   ar
    32    20    15   ar
    33    12    21    1
@<TRIPOS>MOLECULE
*****
 31 33 0 0 0
SMALL
GASTEIGER

@<TRIPOS>ATOM
      1 C         138.4031  139.3625  160.8192 C.ar    1  UNL1        0.1425
      2 C         137.8723  140.6430  161.3924 C.ar    1  UNL1        0.0501
      3 C         137.9255  140.8812  162.8724 C.ar    1  UNL1        0.0830
      4 CL        137.3947  142.1618  163.4455 Cl      1  UNL1       -0.0804
      5 C         138.5094  139.8388  163.7793 C.ar    1  UNL1        0.1473
      6 C         139.0402  138.5582  163.2061 C.ar    1  UNL1        0.1616
      7 C         138.9871  138.3201  161.7261 C.ar    1  UNL1        0.0754
      8 N         138.5626  140.0769  165.2593 N.2     1  UNL1       -0.1439
      9 N         139.8746  140.0092  165.9832 N.2     1  UNL1       -0.1448
     10 C         139.9278  140.2473  167.4632 C.ar    1  UNL1        0.1363
     11 C         138.8440  139.7082  168.3490 C.ar    1  UNL1        0.1529
     12 O         137.7070  138.9309  167.7548 O.3     1  UNL1       -0.5039
     13 C         138.8972  139.9463  169.8290 C.ar    1  UNL1        0.0382
     14 C         140.0341  140.7236  170.4232 C.ar    1  UNL1        0.0032
     15 C         141.1180  141.2628  169.5374 C.ar    1  UNL1        0.0017
     16 C         142.2550  142.0401  170.1316 C.ar    1  UNL1        0.0001
     17 C         143.3387  142.5792  169.2458 C.ar    1  UNL1        0.0000
     18 C         143.2856  142.3411  167.7658 C.ar    1  UNL1        0.0001
     19 C         142.1486  141.5638  167.1716 C.ar    1  UNL1        0.0017
     20 C         141.0648  141.0247  168.0574 C.ar    1  UNL1        0.0224
     21 H         137.6737  138.7821  166.8303 H       1  UNL1        0.2923
     22 O         138.3499  139.1244  159.3392 O.3     1  UNL1       -0.4753
     23 C         139.5251  139.4836  158.4791 C.3     1  UNL1        0.2054
     24 C         140.7728  140.0326  159.1051 C.3     1  UNL1        0.0473
     25 C         142.2809  138.0079  158.4914 C.3     1  UNL1        0.0001
     26 C         141.9130  139.1151  159.4341 C.3     1  UNL1        0.0038
     27 O         139.6242  137.5158  164.1130 O.3     1  UNL1       -0.4738
     28 C         141.0835  137.1797  164.0274 C.3     1  UNL1        0.2055
     29 C         142.0639  138.2103  163.5511 C.3     1  UNL1        0.0473
     30 C         143.0101  138.8509  164.5229 C.3     1  UNL1        0.0038
     31 C         143.1959  138.2600  165.8890 C.3     1  UNL1        0.0001
@<TRIPOS>BOND
     1    25    26    1
     2    26    24    1
     3    24    23    1
     4    23    22    1
     5    22     1    1
     6     1     2   ar
     7     2     3   ar
     8     3     4    1
     9     3     5   ar
    10     5     8    1
    11     8     9    2
    12     9    10    1
    13    10    11   ar
    14    11    12    1
    15    11    13   ar
    16    13    14   ar
    17    14    15   ar
    18    15    16   ar
    19    16    17   ar
    20    17    18   ar
    21    18    19   ar
    22    19    20   ar
    23     5     6   ar
    24     6    27    1
    25    27    28    1
    26    28    29    1
    27    29    30    1
    28    30    31    1
    29     6     7   ar
    30     7     1   ar
    31    20    10   ar
    32    20    15   ar
    33    12    21    1
@<TRIPOS>MOLECULE
*****
 31 33 0 0 0
SMALL
GASTEIGER

@<TRIPOS>ATOM
      1 C         140.0634  144.6460  161.1397 C.ar    1  UNL1        0.1425
      2 C         139.2709  144.7820  162.4060 C.ar    1  UNL1        0.0501
      3 C         139.5177  143.8433  163.5496 C.ar    1  UNL1        0.0830
      4 CL        138.7252  143.9793  164.8160 Cl      1  UNL1       -0.0804
      5 C         140.5568  142.7685  163.4270 C.ar    1  UNL1        0.1473
      6 C         141.3493  142.6325  162.1606 C.ar    1  UNL1        0.1616
      7 C         141.1026  143.5713  161.0170 C.ar    1  UNL1        0.0754
      8 N         140.8036  141.8298  164.5706 N.2     1  UNL1       -0.1439
      9 N         141.6317  142.2736  165.7399 N.2     1  UNL1       -0.1448
     10 C         141.8784  141.3348  166.8835 C.ar    1  UNL1        0.1363
     11 C         142.6054  140.0437  166.6505 C.ar    1  UNL1        0.1529
     12 O         143.0857  139.6911  165.2739 O.3     1  UNL1       -0.5039
     13 C         142.8521  139.1049  167.7942 C.ar    1  UNL1        0.0382
     14 C         142.3719  139.4574  169.1708 C.ar    1  UNL1        0.0032
     15 C         141.6449  140.7486  169.4038 C.ar    1  UNL1        0.0017
     16 C         141.1647  141.1011  170.7804 C.ar    1  UNL1        0.0001
     17 C         140.4377  142.3923  171.0134 C.ar    1  UNL1        0.0000
     18 C         140.1910  143.3310  169.8698 C.ar    1  UNL1        0.0001
     19 C         140.6712  142.9785  168.4932 C.ar    1  UNL1        0.0017
     20 C         141.3982  141.6874  168.2602 C.ar    1  UNL1        0.0224
     21 H         142.9316  140.2775  164.5595 H       1  UNL1        0.2923
     22 O         139.8166  145.5847  159.9961 O.3     1  UNL1       -0.4753
     23 C         140.2563  145.2118  158.6113 C.3     1  UNL1        0.2054
     24 C         140.2053  146.2278  157.5090 C.3     1  UNL1        0.0473
     25 C         138.8518  147.0372  155.4443 C.3     1  UNL1        0.0001
     26 C         139.4622  145.9232  156.2421 C.3     1  UNL1        0.0038
     27 O         142.3885  141.5578  162.0380 O.3     1  UNL1       -0.4738
     28 C         143.7583  141.7702  162.6112 C.3     1  UNL1        0.2055
     29 C         144.3314  143.1541  162.6916 C.3     1  UNL1        0.0473
     30 C         144.1486  143.9704  163.9366 C.3     1  UNL1        0.0038
     31 C         143.2996  145.2066  163.9049 C.3     1  UNL1        0.0001
@<TRIPOS>BOND
     1    25    26    1
     2    26    24    1
     3    24    23    1
     4    23    22    1
     5    22     1    1
     6     1     2   ar
     7     2     3   ar
     8     3     4    1
     9     3     5   ar
    10     5     8    1
    11     8     9    2
    12     9    10    1
    13    10    11   ar
    14    11    12    1
    15    11    13   ar
    16    13    14   ar
    17    14    15   ar
    18    15    16   ar
    19    16    17   ar
    20    17    18   ar
    21    18    19   ar
    22    19    20   ar
    23     5     6   ar
    24     6    27    1
    25    27    28    1
    26    28    29    1
    27    29    30    1
    28    30    31    1
    29     6     7   ar
    30     7     1   ar
    31    20    10   ar
    32    20    15   ar
    33    12    21    1
@<TRIPOS>MOLECULE
*****
 31 33 0 0 0
SMALL
GASTEIGER

@<TRIPOS>ATOM
      1 C         140.3469  144.8932  159.2531 C.ar    1  UNL1        0.1425
      2 C         139.8737  143.4955  158.9841 C.ar    1  UNL1        0.0501
      3 C         139.4084  142.6300  160.1173 C.ar    1  UNL1        0.0830
      4 CL        138.9352  141.2322  159.8482 Cl      1  UNL1       -0.0804
      5 C         139.4163  143.1621  161.5197 C.ar    1  UNL1        0.1473
      6 C         139.8895  144.5599  161.7888 C.ar    1  UNL1        0.1616
      7 C         140.3548  145.4254  160.6556 C.ar    1  UNL1        0.0754
      8 N         138.9510  142.2966  162.6530 N.2     1  UNL1       -0.1439
      9 N         139.9516  141.6728  163.5801 N.2     1  UNL1       -0.1448
     10 C         139.4863  140.8073  164.7134 C.ar    1  UNL1        0.1363
     11 C         138.6257  139.6099  164.4383 C.ar    1  UNL1        0.1529
     12 O         138.2304  139.2781  163.0298 O.3     1  UNL1       -0.5039
     13 C         138.1604  138.7444  165.5716 C.ar    1  UNL1        0.0382
     14 C         138.5557  139.0762  166.9799 C.ar    1  UNL1        0.0032
     15 C         139.4163  140.2736  167.2551 C.ar    1  UNL1        0.0017
     16 C         139.8116  140.6054  168.6635 C.ar    1  UNL1        0.0001
     17 C         140.6722  141.8027  168.9386 C.ar    1  UNL1        0.0000
     18 C         141.1375  142.6682  167.8053 C.ar    1  UNL1        0.0001
     19 C         140.7422  142.3364  166.3969 C.ar    1  UNL1        0.0017
     20 C         139.8816  141.1391  166.1218 C.ar    1  UNL1        0.0224
     21 H         138.5210  139.8187  162.3219 H       1  UNL1        0.2923
     22 O         140.8122  145.7587  158.1199 O.3     1  UNL1       -0.4753
     23 C         139.8125  146.5012  157.2837 C.3     1  UNL1        0.2054
     24 C         139.8358  146.3657  155.7900 C.3     1  UNL1        0.0473
     25 C         139.7465  148.5276  154.3518 C.3     1  UNL1        0.0001
     26 C         139.0627  147.3278  154.9375 C.3     1  UNL1        0.0038
     27 O         139.8974  145.0921  163.1912 O.3     1  UNL1       -0.4738
     28 C         141.1569  145.0444  164.0044 C.3     1  UNL1        0.2055
     29 C         142.4720  144.7746  163.3352 C.3     1  UNL1        0.0473
     30 C         143.7425  144.8238  164.1309 C.3     1  UNL1        0.0038
     31 C         144.1644  143.6362  164.9444 C.3     1  UNL1        0.0001
@<TRIPOS>BOND
     1    25    26    1
     2    26    24    1
     3    24    23    1
     4    23    22    1
     5    22     1    1
     6     1     2   ar
     7     2     3   ar
     8     3     4    1
     9     3     5   ar
    10     5     8    1
    11     8     9    2
    12     9    10    1
    13    10    11   ar
    14    11    12    1
    15    11    13   ar
    16    13    14   ar
    17    14    15   ar
    18    15    16   ar
    19    16    17   ar
    20    17    18   ar
    21    18    19   ar
    22    19    20   ar
    23     5     6   ar
    24     6    27    1
    25    27    28    1
    26    28    29    1
    27    29    30    1
    28    30    31    1
    29     6     7   ar
    30     7     1   ar
    31    20    10   ar
    32    20    15   ar
    33    12    21    1
@<TRIPOS>MOLECULE
*****
 31 33 0 0 0
SMALL
GASTEIGER

@<TRIPOS>ATOM
      1 C         141.2045  140.3501  167.8273 C.ar    1  UNL1        0.1425
      2 C         142.3063  141.2364  167.3267 C.ar    1  UNL1        0.0501
      3 C         142.2785  141.7430  165.9151 C.ar    1  UNL1        0.0830
      4 CL        143.3803  142.6293  165.4145 Cl      1  UNL1       -0.0804
      5 C         141.1489  141.3634  165.0042 C.ar    1  UNL1        0.1473
      6 C         140.0470  140.4772  165.5048 C.ar    1  UNL1        0.1616
      7 C         140.0749  139.9705  166.9163 C.ar    1  UNL1        0.0754
      8 N         141.1211  141.8701  163.5926 N.2     1  UNL1       -0.1439
      9 N         140.2014  142.9940  163.2171 N.2     1  UNL1       -0.1448
     10 C         140.1735  143.5006  161.8056 C.ar    1  UNL1        0.1363
     11 C         140.8212  144.8102  161.4659 C.ar    1  UNL1        0.1529
     12 O         141.4967  145.6133  162.5378 O.3     1  UNL1       -0.5039
     13 C         140.7933  145.3169  160.0543 C.ar    1  UNL1        0.0382
     14 C         140.1179  144.5139  158.9824 C.ar    1  UNL1        0.0032
     15 C         139.4702  143.2042  159.3221 C.ar    1  UNL1        0.0017
     16 C         138.7948  142.4013  158.2502 C.ar    1  UNL1        0.0001
     17 C         138.1471  141.0917  158.5899 C.ar    1  UNL1        0.0000
     18 C         138.1750  140.5850  160.0015 C.ar    1  UNL1        0.0001
     19 C         138.8504  141.3880  161.0734 C.ar    1  UNL1        0.0017
     20 C         139.4980  142.6976  160.7337 C.ar    1  UNL1        0.0224
     21 H         141.5141  145.2968  163.4196 H       1  UNL1        0.2923
     22 O         141.2324  139.8435  169.2389 O.3     1  UNL1       -0.4753
     23 C         140.0568  140.0737  170.1417 C.3     1  UNL1        0.2054
     24 C         139.3387  141.3903  170.1170 C.3     1  UNL1        0.0473
     25 C         140.4753  143.6582  169.5554 C.3     1  UNL1        0.0001
     26 C         140.0423  142.6370  170.5652 C.3     1  UNL1        0.0038
     27 O         138.9174  140.0976  164.5938 O.3     1  UNL1       -0.4738
     28 C         138.6832  138.6565  164.2498 C.3     1  UNL1        0.2055
     29 C         139.3068  138.0683  163.0188 C.3     1  UNL1        0.0473
     30 C         140.6531  137.4121  163.1004 C.3     1  UNL1        0.0038
     31 C         141.2576  137.1043  164.4383 C.3     1  UNL1        0.0001
@<TRIPOS>BOND
     1    25    26    1
     2    26    24    1
     3    24    23    1
     4    23    22    1
     5    22     1    1
     6     1     2   ar
     7     2     3   ar
     8     3     4    1
     9     3     5   ar
    10     5     8    1
    11     8     9    2
    12     9    10    1
    13    10    11   ar
    14    11    12    1
    15    11    13   ar
    16    13    14   ar
    17    14    15   ar
    18    15    16   ar
    19    16    17   ar
    20    17    18   ar
    21    18    19   ar
    22    19    20   ar
    23     5     6   ar
    24     6    27    1
    25    27    28    1
    26    28    29    1
    27    29    30    1
    28    30    31    1
    29     6     7   ar
    30     7     1   ar
    31    20    10   ar
    32    20    15   ar
    33    12    21    1
@<TRIPOS>MOLECULE
*****
 31 33 0 0 0
SMALL
GASTEIGER

@<TRIPOS>ATOM
      1 C         142.4064  140.7777  168.0948 C.ar    1  UNL1        0.1425
      2 C         143.1335  142.0124  167.6511 C.ar    1  UNL1        0.0501
      3 C         143.4788  142.2001  166.2035 C.ar    1  UNL1        0.0830
      4 CL        144.2059  143.4348  165.7599 Cl      1  UNL1       -0.0804
      5 C         143.0970  141.1531  165.1996 C.ar    1  UNL1        0.1473
      6 C         142.3698  139.9183  165.6432 C.ar    1  UNL1        0.1616
      7 C         142.0245  139.7306  167.0908 C.ar    1  UNL1        0.0754
      8 N         143.4422  141.3407  163.7520 N.2     1  UNL1       -0.1439
      9 N         142.7046  142.3562  162.9305 N.2     1  UNL1       -0.1448
     10 C         143.0499  142.5439  161.4829 C.ar    1  UNL1        0.1363
     11 C         144.4739  142.4169  161.0290 C.ar    1  UNL1        0.1529
     12 O         145.5527  142.1022  162.0226 O.3     1  UNL1       -0.5039
     13 C         144.8192  142.6046  159.5814 C.ar    1  UNL1        0.0382
     14 C         143.7405  142.9192  158.5877 C.ar    1  UNL1        0.0032
     15 C         142.3164  143.0462  159.0417 C.ar    1  UNL1        0.0017
     16 C         141.2377  143.3608  158.0480 C.ar    1  UNL1        0.0001
     17 C         139.8137  143.4878  158.5020 C.ar    1  UNL1        0.0000
     18 C         139.4685  143.3001  159.9496 C.ar    1  UNL1        0.0001
     19 C         140.5472  142.9855  160.9432 C.ar    1  UNL1        0.0017
     20 C         141.9711  142.8585  160.4893 C.ar    1  UNL1        0.0224
     21 H         145.3370  141.9850  162.9269 H       1  UNL1        0.2923
     22 O         142.0611  140.5900  169.5424 O.3     1  UNL1       -0.4753
     23 C         140.6576  140.2403  169.9394 C.3     1  UNL1        0.2054
     24 C         139.5918  141.2958  169.9351 C.3     1  UNL1        0.0473
     25 C         140.4188  143.7363  169.6027 C.3     1  UNL1        0.0001
     26 C         139.8819  142.6568  170.4952 C.3     1  UNL1        0.0038
     27 O         141.9880  138.8713  164.6393 O.3     1  UNL1       -0.4738
     28 C         140.5540  138.7139  164.2283 C.3     1  UNL1        0.2055
     29 C         139.7093  137.6410  164.8491 C.3     1  UNL1        0.0473
     30 C         138.4735  138.0089  165.6155 C.3     1  UNL1        0.0038
     31 C         138.4288  139.2884  166.3970 C.3     1  UNL1        0.0001
@<TRIPOS>BOND
     1    25    26    1
     2    26    24    1
     3    24    23    1
     4    23    22    1
     5    22     1    1
     6     1     2   ar
     7     2     3   ar
     8     3     4    1
     9     3     5   ar
    10     5     8    1
    11     8     9    2
    12     9    10    1
    13    10    11   ar
    14    11    12    1
    15    11    13   ar
    16    13    14   ar
    17    14    15   ar
    18    15    16   ar
    19    16    17   ar
    20    17    18   ar
    21    18    19   ar
    22    19    20   ar
    23     5     6   ar
    24     6    27    1
    25    27    28    1
    26    28    29    1
    27    29    30    1
    28    30    31    1
    29     6     7   ar
    30     7     1   ar
    31    20    10   ar
    32    20    15   ar
    33    12    21    1
@<TRIPOS>MOLECULE
*****
 31 33 0 0 0
SMALL
GASTEIGER

@<TRIPOS>ATOM
      1 C         143.0799  138.3107  161.1935 C.ar    1  UNL1        0.1425
      2 C         143.9782  138.7956  162.2925 C.ar    1  UNL1        0.0501
      3 C         143.4420  138.9543  163.6843 C.ar    1  UNL1        0.0830
      4 CL        144.3404  139.4393  164.7834 Cl      1  UNL1       -0.0804
      5 C         142.0075  138.6281  163.9772 C.ar    1  UNL1        0.1473
      6 C         141.1092  138.1430  162.8782 C.ar    1  UNL1        0.1616
      7 C         141.6454  137.9843  161.4863 C.ar    1  UNL1        0.0754
      8 N         141.4714  138.7868  165.3691 N.2     1  UNL1       -0.1439
      9 N         141.1081  140.1486  165.8821 N.2     1  UNL1       -0.1448
     10 C         140.5719  140.3073  167.2740 C.ar    1  UNL1        0.1363
     11 C         139.2558  139.6911  167.6455 C.ar    1  UNL1        0.1529
     12 O         138.4759  138.9161  166.6252 O.3     1  UNL1       -0.5039
     13 C         138.7196  139.8498  169.0374 C.ar    1  UNL1        0.0382
     14 C         139.4995  140.6247  170.0577 C.ar    1  UNL1        0.0032
     15 C         140.8157  141.2411  169.6862 C.ar    1  UNL1        0.0017
     16 C         141.5956  142.0160  170.7066 C.ar    1  UNL1        0.0001
     17 C         142.9117  142.6323  170.3351 C.ar    1  UNL1        0.0000
     18 C         143.4479  142.4736  168.9432 C.ar    1  UNL1        0.0001
     19 C         142.6680  141.6986  167.9228 C.ar    1  UNL1        0.0017
     20 C         141.3519  141.0824  168.2944 C.ar    1  UNL1        0.0224
     21 H         138.8108  138.8169  165.7557 H       1  UNL1        0.2923
     22 O         143.6161  138.1520  159.8016 O.3     1  UNL1       -0.4753
     23 C         143.1945  139.1044  158.7223 C.3     1  UNL1        0.2054
     24 C         142.7376  138.5782  157.3940 C.3     1  UNL1        0.0473
     25 C         142.9283  136.0480  156.8354 C.3     1  UNL1        0.0001
     26 C         142.1127  137.2177  157.3010 C.3     1  UNL1        0.0038
     27 O         139.6747  137.8168  163.1710 O.3     1  UNL1       -0.4738
     28 C         138.5827  138.7046  162.6524 C.3     1  UNL1        0.2055
     29 C         138.6387  140.1836  162.8970 C.3     1  UNL1        0.0473
     30 C         137.8224  140.7931  163.9980 C.3     1  UNL1        0.0038
     31 C         138.2871  142.0527  164.6669 C.3     1  UNL1        0.0001
@<TRIPOS>BOND
     1    25    26    1
     2    26    24    1
     3    24    23    1
     4    23    22    1
     5    22     1    1
     6     1     2   ar
     7     2     3   ar
     8     3     4    1
     9     3     5   ar
    10     5     8    1
    11     8     9    2
    12     9    10    1
    13    10    11   ar
    14    11    12    1
    15    11    13   ar
    16    13    14   ar
    17    14    15   ar
    18    15    16   ar
    19    16    17   ar
    20    17    18   ar
    21    18    19   ar
    22    19    20   ar
    23     5     6   ar
    24     6    27    1
    25    27    28    1
    26    28    29    1
    27    29    30    1
    28    30    31    1
    29     6     7   ar
    30     7     1   ar
    31    20    10   ar
    32    20    15   ar
    33    12    21    1
