@<TRIPOS>MOLECULE
*****
 37 41 0 0 0
SMALL
GASTEIGER

@<TRIPOS>ATOM
      1 N         143.8368  141.9065  164.1302 N.3     1  UNL1       -0.2686
      2 C         144.7310  140.7526  163.7854 C.3     1  UNL1        0.0724
      3 C         144.5168  139.4176  164.4349 C.3     1  UNL1        0.0177
      4 C         143.4084  139.2365  165.4292 C.3     1  UNL1        0.0072
      5 C         142.5142  140.3905  165.7740 C.3     1  UNL1        0.0399
      6 C         142.7284  141.7254  165.1246 C.3     1  UNL1        0.0768
      7 C         141.4058  140.2094  166.7684 C.2     1  UNL1       -0.0024
      8 C         140.0197  139.7230  166.4647 C.2     1  UNL1        0.0770
      9 N         139.2462  139.6959  167.7496 N.2     1  UNL1       -0.2497
     10 C         140.1542  140.1654  168.8473 C.2     1  UNL1        0.0630
     11 C         139.9381  140.3450  170.3208 C.3     1  UNL1        0.0717
     12 C         141.0568  140.8420  171.1877 C.2     1  UNL1       -0.0198
     13 C         142.3915  141.1593  170.5813 C.2     1  UNL1       -0.0042
     14 C         142.6076  140.9797  169.1078 C.2     1  UNL1        0.0006
     15 C         141.4890  140.4828  168.2409 C.2     1  UNL1        0.0114
     16 C         139.4986  139.3324  165.1135 C.ar    1  UNL1        0.0173
     17 C         138.6307  140.2813  164.3413 C.ar    1  UNL1        0.0015
     18 C         138.1096  139.8907  162.9900 C.ar    1  UNL1        0.0000
     19 C         138.4564  138.5512  162.4110 C.ar    1  UNL1        0.0000
     20 C         139.3243  137.6023  163.1832 C.ar    1  UNL1        0.0000
     21 C         139.8454  137.9929  164.5344 C.ar    1  UNL1        0.0015
     22 C         144.0511  143.2416  163.4808 C.3     1  UNL1        0.1014
     23 C         141.2292  144.6640  160.2770 C.ar    1  UNL1        0.0024
     24 C         142.3410  143.7183  159.9313 C.ar    1  UNL1       -0.0001
     25 C         143.2816  143.2442  160.9992 C.ar    1  UNL1       -0.0007
     26 C         143.1104  143.7157  162.4129 C.ar    1  UNL1        0.0213
     27 C         141.9986  144.6614  162.7586 C.ar    1  UNL1        0.1374
     28 F         141.8273  145.1329  164.1722 F       1  UNL1       -0.2045
     29 C         141.0579  145.1355  161.6906 C.ar    1  UNL1        0.0294
     30 C         140.8300  145.7141  157.9344 C.2     1  UNL1        0.0598
     31 C         140.2886  145.1382  159.2092 C.2     1  UNL1        0.0048
     32 O         139.4756  145.2584  155.7646 O.2     1  UNL1       -0.2681
     33 C         139.8893  146.1882  156.8665 C.2     1  UNL1        0.2679
     34 N         139.3624  147.5922  156.9007 N.am    1  UNL1       -0.1934
     35 O         138.4217  148.0664  155.8329 O.3     1  UNL1       -0.2949
     36 H         139.6339  148.2024  157.6239 H       1  UNL1        0.1825
     37 H         138.2587  147.3472  155.2028 H       1  UNL1        0.2414
@<TRIPOS>BOND
     1    32    33    2
     2    33    30    1
     3    30    31    2
     4    31    23    1
     5    23    24   ar
     6    24    25   ar
     7    25    26   ar
     8    26    22    1
     9    22     1    1
    10     1     2    1
    11     2     3    1
    12     3     4    1
    13     4     5    1
    14     5     7    1
    15     7     8    2
    16     8    16    1
    17    16    17   ar
    18    17    18   ar
    19    18    19   ar
    20    19    20   ar
    21    20    21   ar
    22     8     9    1
    23     9    10    2
    24    10    11    1
    25    11    12    1
    26    12    13    2
    27    13    14    1
    28    14    15    2
    29     5     6    1
    30    26    27   ar
    31    27    28    1
    32    27    29   ar
    33    33    34   am
    34    34    35    1
    35    29    23   ar
    36     6     1    1
    37    15     7    1
    38    21    16   ar
    39    15    10    1
    40    34    36    1
    41    35    37    1
@<TRIPOS>MOLECULE
*****
 37 41 0 0 0
SMALL
GASTEIGER

@<TRIPOS>ATOM
      1 N         137.9411  141.6331  161.7611 N.3     1  UNL1       -0.2686
      2 C         137.7770  140.3506  161.0006 C.3     1  UNL1        0.0724
      3 C         138.3885  140.2026  159.6390 C.3     1  UNL1        0.0177
      4 C         139.1643  141.3370  159.0379 C.3     1  UNL1        0.0072
      5 C         139.3284  142.6195  159.7984 C.3     1  UNL1        0.0399
      6 C         138.7169  142.7675  161.1600 C.3     1  UNL1        0.0768
      7 C         140.1042  143.7539  159.1972 C.2     1  UNL1       -0.0024
      8 C         141.1444  144.5785  159.8957 C.2     1  UNL1        0.0770
      9 N         141.6590  145.5971  158.9222 N.2     1  UNL1       -0.2497
     10 C         140.9367  145.4020  157.6221 C.2     1  UNL1        0.0630
     11 C         141.0299  146.1145  156.3054 C.3     1  UNL1        0.0717
     12 C         140.1622  145.6877  155.1587 C.2     1  UNL1       -0.0198
     13 C         139.2013  144.5486  155.3287 C.2     1  UNL1       -0.0042
     14 C         139.1081  143.8361  156.6454 C.2     1  UNL1        0.0006
     15 C         139.9758  144.2628  157.7921 C.2     1  UNL1        0.0114
     16 C         141.5916  144.4136  161.3180 C.ar    1  UNL1        0.0173
     17 C         141.1143  145.3703  162.3700 C.ar    1  UNL1        0.0015
     18 C         141.5615  145.2053  163.7923 C.ar    1  UNL1        0.0000
     19 C         142.4860  144.0836  164.1625 C.ar    1  UNL1        0.0000
     20 C         142.9633  143.1269  163.1104 C.ar    1  UNL1        0.0000
     21 C         142.5161  143.2919  161.6882 C.ar    1  UNL1        0.0015
     22 C         137.3296  141.7811  163.1228 C.3     1  UNL1        0.1014
     23 C         139.9607  142.4630  166.7092 C.ar    1  UNL1        0.0024
     24 C         139.5975  141.0664  166.3002 C.ar    1  UNL1       -0.0001
     25 C         138.7204  140.8391  165.1047 C.ar    1  UNL1       -0.0007
     26 C         138.2066  142.0085  164.3182 C.ar    1  UNL1        0.0213
     27 C         138.5698  143.4052  164.7272 C.ar    1  UNL1        0.1374
     28 F         138.0560  144.5746  163.9408 F       1  UNL1       -0.2045
     29 C         139.4469  143.6325  165.9228 C.ar    1  UNL1        0.0294
     30 C         140.2709  142.5568  169.2870 C.2     1  UNL1        0.0598
     31 C         140.8377  142.6904  167.9046 C.2     1  UNL1        0.0048
     32 O         140.7541  142.2276  171.8184 O.2     1  UNL1       -0.2681
     33 C         141.1480  142.7842  170.4824 C.2     1  UNL1        0.2679
     34 N         142.4190  143.5683  170.3417 N.am    1  UNL1       -0.1934
     35 O         143.2961  143.7957  171.5371 O.3     1  UNL1       -0.2949
     36 H         142.6775  143.9336  169.4649 H       1  UNL1        0.1825
     37 H         142.8992  143.3728  172.3146 H       1  UNL1        0.2414
@<TRIPOS>BOND
     1    32    33    2
     2    33    30    1
     3    30    31    2
     4    31    23    1
     5    23    24   ar
     6    24    25   ar
     7    25    26   ar
     8    26    22    1
     9    22     1    1
    10     1     2    1
    11     2     3    1
    12     3     4    1
    13     4     5    1
    14     5     7    1
    15     7     8    2
    16     8    16    1
    17    16    17   ar
    18    17    18   ar
    19    18    19   ar
    20    19    20   ar
    21    20    21   ar
    22     8     9    1
    23     9    10    2
    24    10    11    1
    25    11    12    1
    26    12    13    2
    27    13    14    1
    28    14    15    2
    29     5     6    1
    30    26    27   ar
    31    27    28    1
    32    27    29   ar
    33    33    34   am
    34    34    35    1
    35    29    23   ar
    36     6     1    1
    37    15     7    1
    38    21    16   ar
    39    15    10    1
    40    34    36    1
    41    35    37    1
@<TRIPOS>MOLECULE
*****
 37 41 0 0 0
SMALL
GASTEIGER

@<TRIPOS>ATOM
      1 N         138.9444  139.0528  162.6659 N.3     1  UNL1       -0.2686
      2 C         137.7258  138.7730  161.8372 C.3     1  UNL1        0.0724
      3 C         137.4178  139.6279  160.6438 C.3     1  UNL1        0.0177
      4 C         138.3285  140.7628  160.2791 C.3     1  UNL1        0.0072
      5 C         139.5471  141.0426  161.1079 C.3     1  UNL1        0.0399
      6 C         139.8550  140.1876  162.3012 C.3     1  UNL1        0.0768
      7 C         140.4577  142.1774  160.7432 C.2     1  UNL1       -0.0024
      8 C         140.8613  143.3080  161.6425 C.2     1  UNL1        0.0770
      9 N         141.7776  144.2102  160.8702 N.2     1  UNL1       -0.2497
     10 C         141.9404  143.6371  159.4936 C.2     1  UNL1        0.0630
     11 C         142.7260  144.0970  158.3014 C.3     1  UNL1        0.0717
     12 C         142.6958  143.3006  157.0307 C.2     1  UNL1       -0.0198
     13 C         141.8801  142.0443  156.9522 C.2     1  UNL1       -0.0042
     14 C         141.0945  141.5844  158.1444 C.2     1  UNL1        0.0006
     15 C         141.1246  142.3808  159.4150 C.2     1  UNL1        0.0114
     16 C         140.4251  143.5023  163.0645 C.ar    1  UNL1        0.0173
     17 C         141.2331  142.9153  164.1837 C.ar    1  UNL1        0.0015
     18 C         140.7969  143.1097  165.6057 C.ar    1  UNL1        0.0000
     19 C         139.5528  143.8909  165.9085 C.ar    1  UNL1        0.0000
     20 C         138.7449  144.4779  164.7893 C.ar    1  UNL1        0.0000
     21 C         139.1810  144.2836  163.3673 C.ar    1  UNL1        0.0015
     22 C         139.2523  138.1979  163.8593 C.3     1  UNL1        0.1014
     23 C         141.1264  140.0306  167.5170 C.ar    1  UNL1        0.0024
     24 C         141.9950  139.4993  166.4155 C.ar    1  UNL1       -0.0001
     25 C         141.3702  138.8884  165.1963 C.ar    1  UNL1       -0.0007
     26 C         139.8769  138.8088  165.0785 C.ar    1  UNL1        0.0213
     27 C         139.0084  139.3401  166.1800 C.ar    1  UNL1        0.1374
     28 F         137.5152  139.2605  166.0623 F       1  UNL1       -0.2045
     29 C         139.6332  139.9510  167.3993 C.ar    1  UNL1        0.0294
     30 C         141.2357  141.9452  169.2698 C.2     1  UNL1        0.0598
     31 C         141.7511  140.6415  168.7362 C.2     1  UNL1        0.0048
     32 O         141.4083  142.1330  171.8553 O.2     1  UNL1       -0.2681
     33 C         141.8604  142.5560  170.4890 C.2     1  UNL1        0.2679
     34 N         142.9372  143.5899  170.3420 N.am    1  UNL1       -0.1934
     35 O         143.5620  144.2008  171.5612 O.3     1  UNL1       -0.2949
     36 H         143.2339  143.8675  169.4453 H       1  UNL1        0.1825
     37 H         143.1585  143.8196  172.3567 H       1  UNL1        0.2414
@<TRIPOS>BOND
     1    32    33    2
     2    33    30    1
     3    30    31    2
     4    31    23    1
     5    23    24   ar
     6    24    25   ar
     7    25    26   ar
     8    26    22    1
     9    22     1    1
    10     1     2    1
    11     2     3    1
    12     3     4    1
    13     4     5    1
    14     5     7    1
    15     7     8    2
    16     8    16    1
    17    16    17   ar
    18    17    18   ar
    19    18    19   ar
    20    19    20   ar
    21    20    21   ar
    22     8     9    1
    23     9    10    2
    24    10    11    1
    25    11    12    1
    26    12    13    2
    27    13    14    1
    28    14    15    2
    29     5     6    1
    30    26    27   ar
    31    27    28    1
    32    27    29   ar
    33    33    34   am
    34    34    35    1
    35    29    23   ar
    36     6     1    1
    37    15     7    1
    38    21    16   ar
    39    15    10    1
    40    34    36    1
    41    35    37    1
@<TRIPOS>MOLECULE
*****
 37 41 0 0 0
SMALL
GASTEIGER

@<TRIPOS>ATOM
      1 N         142.2813  138.6560  162.5163 N.3     1  UNL1       -0.2686
      2 C         143.2686  138.0520  161.5621 C.3     1  UNL1        0.0724
      3 C         143.8408  138.8809  160.4505 C.3     1  UNL1        0.0177
      4 C         143.4257  140.3137  160.2931 C.3     1  UNL1        0.0072
      5 C         142.4383  140.9177  161.2473 C.3     1  UNL1        0.0399
      6 C         141.8662  140.0888  162.3588 C.3     1  UNL1        0.0768
      7 C         142.0232  142.3505  161.0898 C.2     1  UNL1       -0.0024
      8 C         142.1173  143.4163  162.1411 C.2     1  UNL1        0.0770
      9 N         141.5934  144.6935  161.5544 N.2     1  UNL1       -0.2497
     10 C         141.1755  144.4170  160.1405 C.2     1  UNL1        0.0630
     11 C         140.5874  145.2968  159.0775 C.3     1  UNL1        0.0717
     12 C         140.2650  144.7285  157.7273 C.2     1  UNL1       -0.0198
     13 C         140.5307  143.2804  157.4402 C.2     1  UNL1       -0.0042
     14 C         141.1188  142.4006  158.5032 C.2     1  UNL1        0.0006
     15 C         141.4412  142.9689  159.8534 C.2     1  UNL1        0.0114
     16 C         142.6430  143.2364  163.5344 C.ar    1  UNL1        0.0173
     17 C         141.7236  142.7858  164.6305 C.ar    1  UNL1        0.0015
     18 C         142.2493  142.6059  166.0239 C.ar    1  UNL1        0.0000
     19 C         143.6943  142.8768  166.3210 C.ar    1  UNL1        0.0000
     20 C         144.6137  143.3275  165.2249 C.ar    1  UNL1        0.0000
     21 C         144.0880  143.5073  163.8316 C.ar    1  UNL1        0.0015
     22 C         141.7091  137.8272  163.6278 C.3     1  UNL1        0.1014
     23 C         140.4795  139.7830  167.4896 C.ar    1  UNL1        0.0024
     24 C         139.4458  139.4514  166.4545 C.ar    1  UNL1       -0.0001
     25 C         139.8557  138.7994  165.1673 C.ar    1  UNL1       -0.0007
     26 C         141.2993  138.4791  164.9151 C.ar    1  UNL1        0.0213
     27 C         142.3330  138.8108  165.9502 C.ar    1  UNL1        0.1374
     28 F         143.7765  138.4905  165.6981 F       1  UNL1       -0.2045
     29 C         141.9231  139.4627  167.2375 C.ar    1  UNL1        0.0294
     30 C         140.9031  141.5388  169.3571 C.2     1  UNL1        0.0598
     31 C         140.0697  140.4349  168.7769 C.2     1  UNL1        0.0048
     32 O         141.3820  142.0964  171.8491 O.2     1  UNL1       -0.2681
     33 C         140.4932  142.1907  170.6444 C.2     1  UNL1        0.2679
     34 N         139.1946  142.9368  170.7270 N.am    1  UNL1       -0.1934
     35 O         138.7846  143.5887  172.0142 O.3     1  UNL1       -0.2949
     36 H         138.6113  142.9987  169.9363 H       1  UNL1        0.1825
     37 H         139.4662  143.4334  172.6867 H       1  UNL1        0.2414
@<TRIPOS>BOND
     1    32    33    2
     2    33    30    1
     3    30    31    2
     4    31    23    1
     5    23    24   ar
     6    24    25   ar
     7    25    26   ar
     8    26    22    1
     9    22     1    1
    10     1     2    1
    11     2     3    1
    12     3     4    1
    13     4     5    1
    14     5     7    1
    15     7     8    2
    16     8    16    1
    17    16    17   ar
    18    17    18   ar
    19    18    19   ar
    20    19    20   ar
    21    20    21   ar
    22     8     9    1
    23     9    10    2
    24    10    11    1
    25    11    12    1
    26    12    13    2
    27    13    14    1
    28    14    15    2
    29     5     6    1
    30    26    27   ar
    31    27    28    1
    32    27    29   ar
    33    33    34   am
    34    34    35    1
    35    29    23   ar
    36     6     1    1
    37    15     7    1
    38    21    16   ar
    39    15    10    1
    40    34    36    1
    41    35    37    1
@<TRIPOS>MOLECULE
*****
 37 41 0 0 0
SMALL
GASTEIGER

@<TRIPOS>ATOM
      1 N         141.8866  138.6010  161.2463 N.3     1  UNL1       -0.2686
      2 C         142.5060  137.8737  160.0898 C.3     1  UNL1        0.0724
      3 C         142.9577  138.6362  158.8796 C.3     1  UNL1        0.0177
      4 C         142.7901  140.1258  158.8258 C.3     1  UNL1        0.0072
      5 C         142.1706  140.8530  159.9824 C.3     1  UNL1        0.0399
      6 C         141.7189  140.0906  161.1925 C.3     1  UNL1        0.0768
      7 C         142.0029  142.3427  159.9286 C.2     1  UNL1       -0.0024
      8 C         142.5464  143.3275  160.9210 C.2     1  UNL1        0.0770
      9 N         142.1416  144.7024  160.4787 N.2     1  UNL1       -0.2497
     10 C         141.3481  144.5674  159.2130 C.2     1  UNL1        0.0630
     11 C         140.6925  145.5841  158.3261 C.3     1  UNL1        0.0717
     12 C         139.9512  145.1423  157.0993 C.2     1  UNL1       -0.0198
     13 C         139.8654  143.6838  156.7593 C.2     1  UNL1       -0.0042
     14 C         140.5210  142.6672  157.6462 C.2     1  UNL1        0.0006
     15 C         141.2624  143.1090  158.8730 C.2     1  UNL1        0.0114
     16 C         143.3529  142.9956  162.1414 C.ar    1  UNL1        0.0173
     17 C         142.8013  143.2838  163.5062 C.ar    1  UNL1        0.0015
     18 C         143.6078  142.9519  164.7265 C.ar    1  UNL1        0.0000
     19 C         144.9660  142.3318  164.5822 C.ar    1  UNL1        0.0000
     20 C         145.5176  142.0436  163.2174 C.ar    1  UNL1        0.0000
     21 C         144.7110  142.3755  161.9970 C.ar    1  UNL1        0.0015
     22 C         141.4349  137.8386  162.4565 C.3     1  UNL1        0.1014
     23 C         142.1788  139.5022  166.5710 C.ar    1  UNL1        0.0024
     24 C         143.3341  139.2096  165.6602 C.ar    1  UNL1       -0.0001
     25 C         143.0861  138.6551  164.2887 C.ar    1  UNL1       -0.0007
     26 C         141.6828  138.3931  163.8280 C.ar    1  UNL1        0.0213
     27 C         140.5275  138.6856  164.7388 C.ar    1  UNL1        0.1374
     28 F         139.1242  138.4237  164.2782 F       1  UNL1       -0.2045
     29 C         140.7755  139.2402  166.1104 C.ar    1  UNL1        0.0294
     30 C         142.8858  141.4753  168.1063 C.2     1  UNL1        0.0598
     31 C         142.4267  140.0567  167.9425 C.2     1  UNL1        0.0048
     32 O         144.4103  142.7602  169.7721 O.2     1  UNL1       -0.2681
     33 C         143.1336  142.0297  169.4778 C.2     1  UNL1        0.2679
     34 N         142.1049  141.8536  170.5552 N.am    1  UNL1       -0.1934
     35 O         142.3526  142.4080  171.9267 O.3     1  UNL1       -0.2949
     36 H         141.2670  141.3741  170.3620 H       1  UNL1        0.1825
     37 H         143.2176  142.8466  171.9468 H       1  UNL1        0.2414
@<TRIPOS>BOND
     1    32    33    2
     2    33    30    1
     3    30    31    2
     4    31    23    1
     5    23    24   ar
     6    24    25   ar
     7    25    26   ar
     8    26    22    1
     9    22     1    1
    10     1     2    1
    11     2     3    1
    12     3     4    1
    13     4     5    1
    14     5     7    1
    15     7     8    2
    16     8    16    1
    17    16    17   ar
    18    17    18   ar
    19    18    19   ar
    20    19    20   ar
    21    20    21   ar
    22     8     9    1
    23     9    10    2
    24    10    11    1
    25    11    12    1
    26    12    13    2
    27    13    14    1
    28    14    15    2
    29     5     6    1
    30    26    27   ar
    31    27    28    1
    32    27    29   ar
    33    33    34   am
    34    34    35    1
    35    29    23   ar
    36     6     1    1
    37    15     7    1
    38    21    16   ar
    39    15    10    1
    40    34    36    1
    41    35    37    1
@<TRIPOS>MOLECULE
*****
 37 41 0 0 0
SMALL
GASTEIGER

@<TRIPOS>ATOM
      1 N         139.5406  138.6464  162.6738 N.3     1  UNL1       -0.2686
      2 C         138.2537  138.0220  162.2225 C.3     1  UNL1        0.0724
      3 C         137.3723  138.7428  161.2460 C.3     1  UNL1        0.0177
      4 C         137.7778  140.0880  160.7208 C.3     1  UNL1        0.0072
      5 C         139.0649  140.7126  161.1723 C.3     1  UNL1        0.0399
      6 C         139.9462  139.9917  162.1487 C.3     1  UNL1        0.0768
      7 C         139.4704  142.0579  160.6472 C.2     1  UNL1       -0.0024
      8 C         139.9245  143.2258  161.4716 C.2     1  UNL1        0.0770
      9 N         140.2278  144.3611  160.5393 N.2     1  UNL1       -0.2497
     10 C         139.9611  143.8948  159.1388 C.2     1  UNL1        0.0630
     11 C         140.0841  144.5825  157.8114 C.3     1  UNL1        0.0717
     12 C         139.7390  143.8467  156.5507 C.2     1  UNL1       -0.0198
     13 C         139.2709  142.4232  156.6174 C.2     1  UNL1       -0.0042
     14 C         139.1479  141.7355  157.9447 C.2     1  UNL1        0.0006
     15 C         139.4931  142.4713  159.2054 C.2     1  UNL1        0.0114
     16 C         140.0527  143.2536  162.9658 C.ar    1  UNL1        0.0173
     17 C         141.3893  143.0281  163.6082 C.ar    1  UNL1        0.0015
     18 C         141.5176  143.0559  165.1024 C.ar    1  UNL1        0.0000
     19 C         140.3093  143.3092  165.9543 C.ar    1  UNL1        0.0000
     20 C         138.9727  143.5347  165.3119 C.ar    1  UNL1        0.0000
     21 C         138.8444  143.5069  163.8177 C.ar    1  UNL1        0.0015
     22 C         140.4220  137.9256  163.6503 C.3     1  UNL1        0.1014
     23 C         141.9404  140.0583  167.3105 C.ar    1  UNL1        0.0024
     24 C         140.4650  139.8893  167.0989 C.ar    1  UNL1       -0.0001
     25 C         139.9590  139.1784  165.8788 C.ar    1  UNL1       -0.0007
     26 C         140.9282  138.6365  164.8703 C.ar    1  UNL1        0.0213
     27 C         142.4035  138.8055  165.0820 C.ar    1  UNL1        0.1374
     28 F         143.3728  138.2636  164.0736 F       1  UNL1       -0.2045
     29 C         142.9096  139.5164  166.3021 C.ar    1  UNL1        0.0294
     30 C         141.5890  141.7947  169.2109 C.2     1  UNL1        0.0598
     31 C         142.4465  140.7692  168.5305 C.2     1  UNL1        0.0048
     32 O         141.4941  142.2120  171.7735 O.2     1  UNL1       -0.2681
     33 C         142.0952  142.5055  170.4309 C.2     1  UNL1        0.2679
     34 N         143.2027  143.5098  170.3084 N.am    1  UNL1       -0.1934
     35 O         143.7090  144.2206  171.5283 O.3     1  UNL1       -0.2949
     36 H         143.5972  143.7023  169.4272 H       1  UNL1        0.1825
     37 H         143.2167  143.9171  172.3070 H       1  UNL1        0.2414
@<TRIPOS>BOND
     1    32    33    2
     2    33    30    1
     3    30    31    2
     4    31    23    1
     5    23    24   ar
     6    24    25   ar
     7    25    26   ar
     8    26    22    1
     9    22     1    1
    10     1     2    1
    11     2     3    1
    12     3     4    1
    13     4     5    1
    14     5     7    1
    15     7     8    2
    16     8    16    1
    17    16    17   ar
    18    17    18   ar
    19    18    19   ar
    20    19    20   ar
    21    20    21   ar
    22     8     9    1
    23     9    10    2
    24    10    11    1
    25    11    12    1
    26    12    13    2
    27    13    14    1
    28    14    15    2
    29     5     6    1
    30    26    27   ar
    31    27    28    1
    32    27    29   ar
    33    33    34   am
    34    34    35    1
    35    29    23   ar
    36     6     1    1
    37    15     7    1
    38    21    16   ar
    39    15    10    1
    40    34    36    1
    41    35    37    1
@<TRIPOS>MOLECULE
*****
 37 41 0 0 0
SMALL
GASTEIGER

@<TRIPOS>ATOM
      1 N         144.0198  140.9483  162.0469 N.3     1  UNL1       -0.2686
      2 C         144.1425  139.7956  161.0949 C.3     1  UNL1        0.0724
      3 C         143.3739  139.8016  159.8069 C.3     1  UNL1        0.0177
      4 C         142.4825  140.9602  159.4708 C.3     1  UNL1        0.0072
      5 C         142.3597  142.1130  160.4228 C.3     1  UNL1        0.0399
      6 C         143.1284  142.1070  161.7108 C.3     1  UNL1        0.0768
      7 C         141.4683  143.2716  160.0867 C.2     1  UNL1       -0.0024
      8 C         140.3762  143.8244  160.9538 C.2     1  UNL1        0.0770
      9 N         139.7455  144.9753  160.2275 N.2     1  UNL1       -0.2497
     10 C         140.4478  145.1339  158.9115 C.2     1  UNL1        0.0630
     11 C         140.2553  146.1010  157.7813 C.3     1  UNL1        0.0717
     12 C         141.1275  146.0152  156.5640 C.2     1  UNL1       -0.0198
     13 C         142.1923  144.9622  156.4770 C.2     1  UNL1       -0.0042
     14 C         142.3848  143.9951  157.6073 C.2     1  UNL1        0.0006
     15 C         141.5126  144.0809  158.8246 C.2     1  UNL1        0.0114
     16 C         139.9838  143.3155  162.3092 C.ar    1  UNL1        0.0173
     17 C         140.7543  143.7434  163.5229 C.ar    1  UNL1        0.0015
     18 C         140.3618  143.2346  164.8783 C.ar    1  UNL1        0.0000
     19 C         139.1989  142.2979  165.0200 C.ar    1  UNL1        0.0000
     20 C         138.4284  141.8700  163.8062 C.ar    1  UNL1        0.0000
     21 C         138.8208  142.3789  162.4508 C.ar    1  UNL1        0.0015
     22 C         144.7885  140.9424  163.3349 C.3     1  UNL1        0.1014
     23 C         142.6068  141.2478  167.2588 C.ar    1  UNL1        0.0024
     24 C         142.6315  139.9461  166.5138 C.ar    1  UNL1       -0.0001
     25 C         143.3588  139.8444  165.2058 C.ar    1  UNL1       -0.0007
     26 C         144.0613  141.0442  164.6429 C.ar    1  UNL1        0.0213
     27 C         144.0365  142.3458  165.3879 C.ar    1  UNL1        0.1374
     28 F         144.7390  143.5457  164.8250 F       1  UNL1       -0.2045
     29 C         143.3093  142.4476  166.6960 C.ar    1  UNL1        0.0294
     30 C         140.5982  142.1245  168.6542 C.2     1  UNL1        0.0598
     31 C         141.8795  141.3496  168.5668 C.2     1  UNL1        0.0048
     32 O         139.4696  140.9812  170.6960 O.2     1  UNL1       -0.2681
     33 C         139.8711  142.2263  169.9622 C.2     1  UNL1        0.2679
     34 N         139.5454  143.5733  170.5363 N.am    1  UNL1       -0.1934
     35 O         138.8182  143.6752  171.8443 O.3     1  UNL1       -0.2949
     36 H         139.8089  144.3905  170.0547 H       1  UNL1        0.1825
     37 H         138.6348  142.7847  172.1825 H       1  UNL1        0.2414
@<TRIPOS>BOND
     1    32    33    2
     2    33    30    1
     3    30    31    2
     4    31    23    1
     5    23    24   ar
     6    24    25   ar
     7    25    26   ar
     8    26    22    1
     9    22     1    1
    10     1     2    1
    11     2     3    1
    12     3     4    1
    13     4     5    1
    14     5     7    1
    15     7     8    2
    16     8    16    1
    17    16    17   ar
    18    17    18   ar
    19    18    19   ar
    20    19    20   ar
    21    20    21   ar
    22     8     9    1
    23     9    10    2
    24    10    11    1
    25    11    12    1
    26    12    13    2
    27    13    14    1
    28    14    15    2
    29     5     6    1
    30    26    27   ar
    31    27    28    1
    32    27    29   ar
    33    33    34   am
    34    34    35    1
    35    29    23   ar
    36     6     1    1
    37    15     7    1
    38    21    16   ar
    39    15    10    1
    40    34    36    1
    41    35    37    1
@<TRIPOS>MOLECULE
*****
 37 41 0 0 0
SMALL
GASTEIGER

@<TRIPOS>ATOM
      1 N         138.7187  141.1906  163.9843 N.3     1  UNL1       -0.2686
      2 C         137.8239  142.3892  163.8708 C.3     1  UNL1        0.0724
      3 C         138.1165  143.6222  164.6733 C.3     1  UNL1        0.0177
      4 C         139.3038  143.6566  165.5894 C.3     1  UNL1        0.0072
      5 C         140.1986  142.4580  165.7029 C.3     1  UNL1        0.0399
      6 C         139.9060  141.2251  164.9003 C.3     1  UNL1        0.0768
      7 C         141.3858  142.4925  166.6189 C.2     1  UNL1       -0.0024
      8 C         142.8119  142.7070  166.2062 C.2     1  UNL1        0.0770
      9 N         143.6629  142.6656  167.4408 N.2     1  UNL1       -0.2497
     10 C         142.7628  142.4254  168.6164 C.2     1  UNL1        0.0630
     11 C         143.0428  142.2903  170.0838 C.3     1  UNL1        0.0717
     12 C         141.9155  142.0482  171.0433 C.2     1  UNL1       -0.0198
     13 C         140.5082  141.9412  170.5353 C.2     1  UNL1       -0.0042
     14 C         140.2282  142.0763  169.0679 C.2     1  UNL1        0.0006
     15 C         141.3555  142.3184  168.1085 C.2     1  UNL1        0.0114
     16 C         143.3011  142.9248  164.8051 C.ar    1  UNL1        0.0173
     17 C         143.5582  144.3166  164.3083 C.ar    1  UNL1        0.0015
     18 C         144.0474  144.5343  162.9071 C.ar    1  UNL1        0.0000
     19 C         144.2794  143.3604  162.0027 C.ar    1  UNL1        0.0000
     20 C         144.0223  141.9686  162.4995 C.ar    1  UNL1        0.0000
     21 C         143.5331  141.7509  163.9007 C.ar    1  UNL1        0.0015
     22 C         138.4261  139.9576  163.1817 C.3     1  UNL1        0.1014
     23 C         141.4611  138.4156  160.2387 C.ar    1  UNL1        0.0024
     24 C         140.4998  139.4922  159.8301 C.ar    1  UNL1       -0.0001
     25 C         139.4882  140.0061  160.8111 C.ar    1  UNL1       -0.0007
     26 C         139.4378  139.4436  162.2008 C.ar    1  UNL1        0.0213
     27 C         140.3991  138.3671  162.6094 C.ar    1  UNL1        0.1374
     28 F         140.3488  137.8045  163.9990 F       1  UNL1       -0.2045
     29 C         141.4108  137.8531  161.6283 C.ar    1  UNL1        0.0294
     30 C         142.0758  137.6498  157.8334 C.2     1  UNL1        0.0598
     31 C         142.4728  137.9016  159.2578 C.2     1  UNL1        0.0048
     32 O         143.1352  135.6737  156.5209 O.2     1  UNL1       -0.2681
     33 C         143.0876  137.1358  156.8525 C.2     1  UNL1        0.2679
     34 N         144.0517  138.0839  156.2032 N.am    1  UNL1       -0.1934
     35 O         145.0634  137.5700  155.2223 O.3     1  UNL1       -0.2949
     36 H         144.0204  139.0435  156.4209 H       1  UNL1        0.1825
     37 H         144.9590  136.6108  155.1227 H       1  UNL1        0.2414
@<TRIPOS>BOND
     1    32    33    2
     2    33    30    1
     3    30    31    2
     4    31    23    1
     5    23    24   ar
     6    24    25   ar
     7    25    26   ar
     8    26    22    1
     9    22     1    1
    10     1     2    1
    11     2     3    1
    12     3     4    1
    13     4     5    1
    14     5     7    1
    15     7     8    2
    16     8    16    1
    17    16    17   ar
    18    17    18   ar
    19    18    19   ar
    20    19    20   ar
    21    20    21   ar
    22     8     9    1
    23     9    10    2
    24    10    11    1
    25    11    12    1
    26    12    13    2
    27    13    14    1
    28    14    15    2
    29     5     6    1
    30    26    27   ar
    31    27    28    1
    32    27    29   ar
    33    33    34   am
    34    34    35    1
    35    29    23   ar
    36     6     1    1
    37    15     7    1
    38    21    16   ar
    39    15    10    1
    40    34    36    1
    41    35    37    1
@<TRIPOS>MOLECULE
*****
 37 41 0 0 0
SMALL
GASTEIGER

@<TRIPOS>ATOM
      1 N         141.7136  143.2615  163.3251 N.3     1  UNL1       -0.2686
      2 C         140.9543  144.5514  163.2270 C.3     1  UNL1        0.0724
      3 C         139.8664  144.8581  164.2130 C.3     1  UNL1        0.0177
      4 C         139.5378  143.8750  165.2973 C.3     1  UNL1        0.0072
      5 C         140.2973  142.5851  165.3954 C.3     1  UNL1        0.0399
      6 C         141.3851  142.2784  164.4094 C.3     1  UNL1        0.0768
      7 C         139.9687  141.6020  166.4797 C.2     1  UNL1       -0.0024
      8 C         139.3966  140.2296  166.2817 C.2     1  UNL1        0.0770
      9 N         139.2290  139.5982  167.6319 N.2     1  UNL1       -0.2497
     10 C         139.6974  140.5803  168.6644 C.2     1  UNL1        0.0630
     11 C         139.7667  140.5069  170.1610 C.3     1  UNL1        0.0717
     12 C         140.2932  141.6720  170.9454 C.2     1  UNL1       -0.0198
     13 C         140.7504  142.9104  170.2332 C.2     1  UNL1       -0.0042
     14 C         140.6811  142.9838  168.7367 C.2     1  UNL1        0.0006
     15 C         140.1546  141.8188  167.9522 C.2     1  UNL1        0.0114
     16 C         139.0526  139.5993  164.9647 C.ar    1  UNL1        0.0173
     17 C         139.5773  138.2355  164.6262 C.ar    1  UNL1        0.0015
     18 C         139.2333  137.6052  163.3092 C.ar    1  UNL1        0.0000
     19 C         138.3647  138.3387  162.3308 C.ar    1  UNL1        0.0000
     20 C         137.8400  139.7025  162.6694 C.ar    1  UNL1        0.0000
     21 C         138.1840  140.3328  163.9863 C.ar    1  UNL1        0.0015
     22 C         142.8015  142.9548  162.3390 C.3     1  UNL1        0.1014
     23 C         142.6490  139.1574  159.9293 C.ar    1  UNL1        0.0024
     24 C         141.6212  139.4135  160.9914 C.ar    1  UNL1       -0.0001
     25 C         141.6721  140.6793  161.7946 C.ar    1  UNL1       -0.0007
     26 C         142.7507  141.6891  161.5358 C.ar    1  UNL1        0.0213
     27 C         143.7785  141.4330  160.4737 C.ar    1  UNL1        0.1374
     28 F         144.8572  142.4427  160.2148 F       1  UNL1       -0.2045
     29 C         143.7277  140.1671  159.6704 C.ar    1  UNL1        0.0294
     30 C         142.2740  137.9447  157.6624 C.2     1  UNL1        0.0598
     31 C         142.5982  137.8917  159.1260 C.2     1  UNL1        0.0048
     32 O         143.4636  135.8549  156.6787 O.2     1  UNL1       -0.2681
     33 C         142.2233  136.6788  156.8592 C.2     1  UNL1        0.2679
     34 N         140.9321  136.2370  156.2366 N.am    1  UNL1       -0.1934
     35 O         140.8813  134.9712  155.4334 O.3     1  UNL1       -0.2949
     36 H         140.1181  136.7778  156.3551 H       1  UNL1        0.1825
     37 H         141.7614  134.5638  155.4159 H       1  UNL1        0.2414
@<TRIPOS>BOND
     1    32    33    2
     2    33    30    1
     3    30    31    2
     4    31    23    1
     5    23    24   ar
     6    24    25   ar
     7    25    26   ar
     8    26    22    1
     9    22     1    1
    10     1     2    1
    11     2     3    1
    12     3     4    1
    13     4     5    1
    14     5     7    1
    15     7     8    2
    16     8    16    1
    17    16    17   ar
    18    17    18   ar
    19    18    19   ar
    20    19    20   ar
    21    20    21   ar
    22     8     9    1
    23     9    10    2
    24    10    11    1
    25    11    12    1
    26    12    13    2
    27    13    14    1
    28    14    15    2
    29     5     6    1
    30    26    27   ar
    31    27    28    1
    32    27    29   ar
    33    33    34   am
    34    34    35    1
    35    29    23   ar
    36     6     1    1
    37    15     7    1
    38    21    16   ar
    39    15    10    1
    40    34    36    1
    41    35    37    1
