@<TRIPOS>MOLECULE
*****
 38 42 0 0 0
SMALL
GASTEIGER

@<TRIPOS>ATOM
      1 N         142.7561  144.2363  163.2095 N.3     1  UNL1       -0.2689
      2 C         142.4956  143.6007  161.8761 C.3     1  UNL1        0.0737
      3 C         141.0922  143.4940  161.3574 C.3     1  UNL1        0.0356
      4 C         139.9493  144.0229  162.1722 C.3     1  UNL1        0.0843
      5 C         140.2098  144.6585  163.5056 C.3     1  UNL1        0.1407
      6 O         139.0667  145.1874  164.3204 O.3     1  UNL1       -0.3817
      7 C         141.6131  144.7652  164.0243 C.3     1  UNL1        0.1031
      8 H         138.2347  145.0401  163.8441 H       1  UNL1        0.2105
      9 N         138.5458  143.9161  161.6535 N.3     1  UNL1       -0.2915
     10 H         138.4501  144.6154  160.9171 H       1  UNL1        0.1236
     11 C         138.0529  142.6184  161.0852 C.3     1  UNL1        0.1152
     12 C         138.2466  141.3429  161.8503 C.ar    1  UNL1        0.0765
     13 C         138.7026  140.1035  161.1390 C.ar    1  UNL1        0.0193
     14 C         138.8963  138.8279  161.9041 C.ar    1  UNL1        0.0411
     15 C         138.6339  138.7917  163.3805 C.ar    1  UNL1        0.1708
     16 C         138.1779  140.0312  164.0919 C.ar    1  UNL1        0.1682
     17 N         137.9842  141.3067  163.3267 N.ar    1  UNL1       -0.2304
     18 N         137.9155  139.9950  165.5683 N.am    1  UNL1       -0.2639
     19 C         138.1092  138.7193  166.3334 C.2     1  UNL1        0.2718
     20 O         137.8468  138.6832  167.8098 O.2     1  UNL1       -0.2707
     21 C         138.5652  137.4800  165.6221 C.3     1  UNL1        0.2898
     22 O         138.8275  137.5162  164.1457 O.3     1  UNL1       -0.4628
     23 H         137.6162  140.8084  166.0352 H       1  UNL1        0.1565
     24 C         144.1595  144.3431  163.7282 C.3     1  UNL1        0.0970
     25 C         144.5997  143.4909  164.8815 C.3     1  UNL1        0.1263
     26 C         141.5149  141.8702  167.7288 C.ar    1  UNL1        0.0699
     27 C         141.2018  140.4033  167.7399 C.ar    1  UNL1        0.0104
     28 C         141.9170  139.4766  166.8019 C.ar    1  UNL1        0.0021
     29 C         142.9453  140.0169  165.8528 C.ar    1  UNL1        0.0161
     30 C         143.6605  139.0902  164.9149 C.ar    1  UNL1        0.0063
     31 C         144.6887  139.6304  163.9658 C.ar    1  UNL1        0.0608
     32 C         145.0018  141.0974  163.9547 C.ar    1  UNL1        0.2610
     33 O         146.0301  141.6376  163.0056 O.2     1  UNL1       -0.2670
     34 N         144.2866  142.0240  164.8926 N.ar    1  UNL1       -0.2941
     35 C         143.2583  141.4837  165.8417 C.ar    1  UNL1        0.0631
     36 C         142.5431  142.4104  166.7797 C.ar    1  UNL1        0.0275
     37 N         140.0845  143.7236  169.6047 N.1     1  UNL1       -0.1908
     38 C         140.7997  142.7969  168.6667 C.1     1  UNL1        0.1005
@<TRIPOS>BOND
     1    37    38    3
     2    38    26    1
     3    26    27   ar
     4    27    28   ar
     5    28    29   ar
     6    29    30   ar
     7    30    31   ar
     8    31    32   ar
     9    32    33    2
    10    32    34   ar
    11    34    25    1
    12    25    24    1
    13    24     1    1
    14     1     2    1
    15     2     3    1
    16     3     4    1
    17     4     9    1
    18     9    11    1
    19    11    12    1
    20    12    13   ar
    21    13    14   ar
    22    14    15   ar
    23    15    16   ar
    24    16    17   ar
    25    16    18    1
    26    18    19   am
    27    19    20    2
    28    19    21    1
    29    21    22    1
    30     4     5    1
    31     5     6    1
    32     5     7    1
    33    34    35   ar
    34    35    36   ar
    35    36    26   ar
    36    35    29   ar
    37     7     1    1
    38    17    12   ar
    39    22    15    1
    40     9    10    1
    41    18    23    1
    42     6     8    1
@<TRIPOS>MOLECULE
*****
 38 42 0 0 0
SMALL
GASTEIGER

@<TRIPOS>ATOM
      1 N         137.9034  142.9075  162.9172 N.3     1  UNL1       -0.2689
      2 C         137.7097  141.7496  163.8509 C.3     1  UNL1        0.0737
      3 C         137.7126  140.3476  163.3178 C.3     1  UNL1        0.0356
      4 C         137.9092  140.1034  161.8510 C.3     1  UNL1        0.0843
      5 C         138.1029  141.2612  160.9172 C.3     1  UNL1        0.1407
      6 O         138.2996  141.0170  159.4503 O.3     1  UNL1       -0.3817
      7 C         138.1000  142.6633  161.4503 C.3     1  UNL1        0.1031
      8 H         138.2748  140.0633  159.2752 H       1  UNL1        0.2105
      9 N         137.9121  138.7013  161.3178 N.3     1  UNL1       -0.2915
     10 H         137.3759  138.7151  160.4503 H       1  UNL1        0.1236
     11 C         139.2120  138.0177  161.0126 C.3     1  UNL1        0.1152
     12 C         140.3924  138.2126  161.9173 C.ar    1  UNL1        0.0765
     13 C         140.5223  137.3939  163.1674 C.ar    1  UNL1        0.0193
     14 C         141.7028  137.5887  164.0723 C.ar    1  UNL1        0.0411
     15 C         142.7533  138.6022  163.7268 C.ar    1  UNL1        0.1708
     16 C         142.6233  139.4209  162.4766 C.ar    1  UNL1        0.1682
     17 N         141.4429  139.2260  161.5719 N.ar    1  UNL1       -0.2304
     18 N         143.6738  140.4343  162.1312 N.am    1  UNL1       -0.2639
     19 C         144.8543  140.6291  163.0360 C.2     1  UNL1        0.2718
     20 O         145.9048  141.6426  162.6906 O.2     1  UNL1       -0.2707
     21 C         144.9842  139.8105  164.2861 C.3     1  UNL1        0.2898
     22 O         143.9337  138.7970  164.6316 O.3     1  UNL1       -0.4628
     23 H         143.5886  140.9716  161.3106 H       1  UNL1        0.1565
     24 C         137.9005  144.3096  163.4503 C.3     1  UNL1        0.0970
     25 C         138.8515  144.6983  164.5432 C.3     1  UNL1        0.1263
     26 C         140.8141  141.6149  167.1682 C.ar    1  UNL1        0.0699
     27 C         142.2797  141.3301  167.0235 C.ar    1  UNL1        0.0104
     28 C         143.0911  142.0730  166.0039 C.ar    1  UNL1        0.0021
     29 C         142.4369  143.1008  165.1289 C.ar    1  UNL1        0.0161
     30 C         143.2483  143.8438  164.1093 C.ar    1  UNL1        0.0063
     31 C         142.5941  144.8716  163.2343 C.ar    1  UNL1        0.0608
     32 C         141.1285  145.1565  163.3789 C.ar    1  UNL1        0.2610
     33 O         140.4743  146.1843  162.5040 O.2     1  UNL1       -0.2670
     34 N         140.3171  144.4135  164.3986 N.ar    1  UNL1       -0.2941
     35 C         140.9713  143.3857  165.2736 C.ar    1  UNL1        0.0631
     36 C         140.1599  142.6427  166.2932 C.ar    1  UNL1        0.0275
     37 N         139.1914  140.1289  169.2074 N.1     1  UNL1       -0.1908
     38 C         140.0027  140.8719  168.1878 C.1     1  UNL1        0.1005
@<TRIPOS>BOND
     1    37    38    3
     2    38    26    1
     3    26    27   ar
     4    27    28   ar
     5    28    29   ar
     6    29    30   ar
     7    30    31   ar
     8    31    32   ar
     9    32    33    2
    10    32    34   ar
    11    34    25    1
    12    25    24    1
    13    24     1    1
    14     1     2    1
    15     2     3    1
    16     3     4    1
    17     4     9    1
    18     9    11    1
    19    11    12    1
    20    12    13   ar
    21    13    14   ar
    22    14    15   ar
    23    15    16   ar
    24    16    17   ar
    25    16    18    1
    26    18    19   am
    27    19    20    2
    28    19    21    1
    29    21    22    1
    30     4     5    1
    31     5     6    1
    32     5     7    1
    33    34    35   ar
    34    35    36   ar
    35    36    26   ar
    36    35    29   ar
    37     7     1    1
    38    17    12   ar
    39    22    15    1
    40     9    10    1
    41    18    23    1
    42     6     8    1
@<TRIPOS>MOLECULE
*****
 38 42 0 0 0
SMALL
GASTEIGER

@<TRIPOS>ATOM
      1 N         143.4063  142.0392  163.9850 N.3     1  UNL1       -0.2689
      2 C         142.7069  142.8378  165.0447 C.3     1  UNL1        0.0737
      3 C         142.0045  144.1125  164.6821 C.3     1  UNL1        0.0356
      4 C         142.0015  144.5887  163.2597 C.3     1  UNL1        0.0843
      5 C         142.7009  143.7901  162.2000 C.3     1  UNL1        0.1407
      6 O         142.6979  144.2663  160.7775 O.3     1  UNL1       -0.3817
      7 C         143.4033  142.5153  162.5626 C.3     1  UNL1        0.1031
      8 H         142.2038  145.0988  160.7163 H       1  UNL1        0.2105
      9 N         141.2991  145.8635  162.8970 N.3     1  UNL1       -0.2915
     10 H         141.8679  146.3207  162.1844 H       1  UNL1        0.1236
     11 C         139.8953  145.8226  162.3700 C.3     1  UNL1        0.1152
     12 C         139.2080  144.5047  162.1684 C.ar    1  UNL1        0.0765
     13 C         138.3406  143.9376  163.2528 C.ar    1  UNL1        0.0193
     14 C         137.6533  142.6196  163.0512 C.ar    1  UNL1        0.0411
     15 C         137.8334  141.8688  161.7652 C.ar    1  UNL1        0.1708
     16 C         138.7009  142.4360  160.6807 C.ar    1  UNL1        0.1682
     17 N         139.3882  143.7539  160.8824 N.ar    1  UNL1       -0.2304
     18 N         138.8810  141.6852  159.3947 N.am    1  UNL1       -0.2639
     19 C         138.1936  140.3672  159.1931 C.2     1  UNL1        0.2718
     20 O         138.3738  139.6164  157.9071 O.2     1  UNL1       -0.2707
     21 C         137.3262  139.8001  160.2775 C.3     1  UNL1        0.2898
     22 O         137.1461  140.5509  161.5635 O.3     1  UNL1       -0.4628
     23 H         139.4503  142.0574  158.6830 H       1  UNL1        0.1565
     24 C         144.1087  140.7643  164.3477 C.3     1  UNL1        0.0970
     25 C         143.4206  139.7480  165.2100 C.3     1  UNL1        0.1263
     26 C         139.5923  139.8104  167.5743 C.ar    1  UNL1        0.0699
     27 C         138.3821  139.0876  167.0614 C.ar    1  UNL1        0.0104
     28 C         138.4481  138.3440  165.7604 C.ar    1  UNL1        0.0021
     29 C         139.7242  138.3232  164.9722 C.ar    1  UNL1        0.0161
     30 C         139.7901  137.5796  163.6712 C.ar    1  UNL1        0.0063
     31 C         141.0662  137.5588  162.8831 C.ar    1  UNL1        0.0608
     32 C         142.2764  138.2816  163.3960 C.ar    1  UNL1        0.2610
     33 O         143.5525  138.2608  162.6079 O.2     1  UNL1       -0.2670
     34 N         142.2105  139.0252  164.6971 N.ar    1  UNL1       -0.2941
     35 C         140.9343  139.0460  165.4852 C.ar    1  UNL1        0.0631
     36 C         140.8683  139.7896  166.7862 C.ar    1  UNL1        0.0275
     37 N         139.4603  141.2976  170.1764 N.1     1  UNL1       -0.1908
     38 C         139.5263  140.5540  168.8754 C.1     1  UNL1        0.1005
@<TRIPOS>BOND
     1    37    38    3
     2    38    26    1
     3    26    27   ar
     4    27    28   ar
     5    28    29   ar
     6    29    30   ar
     7    30    31   ar
     8    31    32   ar
     9    32    33    2
    10    32    34   ar
    11    34    25    1
    12    25    24    1
    13    24     1    1
    14     1     2    1
    15     2     3    1
    16     3     4    1
    17     4     9    1
    18     9    11    1
    19    11    12    1
    20    12    13   ar
    21    13    14   ar
    22    14    15   ar
    23    15    16   ar
    24    16    17   ar
    25    16    18    1
    26    18    19   am
    27    19    20    2
    28    19    21    1
    29    21    22    1
    30     4     5    1
    31     5     6    1
    32     5     7    1
    33    34    35   ar
    34    35    36   ar
    35    36    26   ar
    36    35    29   ar
    37     7     1    1
    38    17    12   ar
    39    22    15    1
    40     9    10    1
    41    18    23    1
    42     6     8    1
@<TRIPOS>MOLECULE
*****
 38 42 0 0 0
SMALL
GASTEIGER

@<TRIPOS>ATOM
      1 N         141.6572  138.3446  163.7046 N.3     1  UNL1       -0.2689
      2 C         142.7673  138.4490  164.7080 C.3     1  UNL1        0.0737
      3 C         144.0181  139.2035  164.3669 C.3     1  UNL1        0.0356
      4 C         144.1586  139.8536  163.0225 C.3     1  UNL1        0.0843
      5 C         143.0484  139.7493  162.0191 C.3     1  UNL1        0.1407
      6 O         143.1891  140.3995  160.6747 O.3     1  UNL1       -0.3817
      7 C         141.7977  138.9948  162.3602 C.3     1  UNL1        0.1031
      8 H         144.0504  140.8420  160.6180 H       1  UNL1        0.2105
      9 N         145.4094  140.6082  162.6813 N.3     1  UNL1       -0.2915
     10 H         145.5464  140.5116  161.6752 H       1  UNL1        0.1236
     11 C         145.5110  142.0718  162.9936 C.3     1  UNL1        0.1152
     12 C         144.2779  142.9258  162.9949 C.ar    1  UNL1        0.0765
     13 C         143.6766  143.3728  164.2943 C.ar    1  UNL1        0.0193
     14 C         142.4435  144.2269  164.2957 C.ar    1  UNL1        0.0411
     15 C         141.8117  144.6339  162.9976 C.ar    1  UNL1        0.1708
     16 C         142.4131  144.1869  161.6981 C.ar    1  UNL1        0.1682
     17 N         143.6462  143.3329  161.6968 N.ar    1  UNL1       -0.2304
     18 N         141.7813  144.5940  160.4000 N.am    1  UNL1       -0.2639
     19 C         140.5481  145.4480  160.4013 C.2     1  UNL1        0.2718
     20 O         139.9163  145.8551  159.1032 O.2     1  UNL1       -0.2707
     21 C         139.9468  145.8950  161.7008 C.3     1  UNL1        0.2898
     22 O         140.5786  145.4879  162.9989 O.3     1  UNL1       -0.4628
     23 H         142.1759  144.3006  159.5471 H       1  UNL1        0.1565
     24 C         140.4064  137.5901  164.0458 C.3     1  UNL1        0.0970
     25 C         139.3369  138.2443  164.8692 C.3     1  UNL1        0.1263
     26 C         141.3635  140.6162  168.1121 C.ar    1  UNL1        0.0699
     27 C         141.2433  142.1112  168.1345 C.ar    1  UNL1        0.0104
     28 C         140.4476  142.8156  167.0758 C.ar    1  UNL1        0.0021
     29 C         139.7721  142.0250  165.9948 C.ar    1  UNL1        0.0161
     30 C         138.9764  142.7293  164.9362 C.ar    1  UNL1        0.0063
     31 C         138.3009  141.9387  163.8552 C.ar    1  UNL1        0.0608
     32 C         138.4210  140.4437  163.8329 C.ar    1  UNL1        0.2610
     33 O         137.7455  139.6531  162.7519 O.2     1  UNL1       -0.2670
     34 N         139.2167  139.7393  164.8915 N.ar    1  UNL1       -0.2941
     35 C         139.8923  140.5300  165.9725 C.ar    1  UNL1        0.0631
     36 C         140.6880  139.8256  167.0312 C.ar    1  UNL1        0.0275
     37 N         142.9549  139.2075  170.2294 N.1     1  UNL1       -0.1908
     38 C         142.1592  139.9119  169.1708 C.1     1  UNL1        0.1005
@<TRIPOS>BOND
     1    37    38    3
     2    38    26    1
     3    26    27   ar
     4    27    28   ar
     5    28    29   ar
     6    29    30   ar
     7    30    31   ar
     8    31    32   ar
     9    32    33    2
    10    32    34   ar
    11    34    25    1
    12    25    24    1
    13    24     1    1
    14     1     2    1
    15     2     3    1
    16     3     4    1
    17     4     9    1
    18     9    11    1
    19    11    12    1
    20    12    13   ar
    21    13    14   ar
    22    14    15   ar
    23    15    16   ar
    24    16    17   ar
    25    16    18    1
    26    18    19   am
    27    19    20    2
    28    19    21    1
    29    21    22    1
    30     4     5    1
    31     5     6    1
    32     5     7    1
    33    34    35   ar
    34    35    36   ar
    35    36    26   ar
    36    35    29   ar
    37     7     1    1
    38    17    12   ar
    39    22    15    1
    40     9    10    1
    41    18    23    1
    42     6     8    1
@<TRIPOS>MOLECULE
*****
 38 42 0 0 0
SMALL
GASTEIGER

@<TRIPOS>ATOM
      1 N         138.2819  140.4433  163.5238 N.3     1  UNL1       -0.2689
      2 C         138.0588  141.4589  164.6049 C.3     1  UNL1        0.0737
      3 C         137.8916  142.9068  164.2508 C.3     1  UNL1        0.0356
      4 C         137.9476  143.3392  162.8156 C.3     1  UNL1        0.0843
      5 C         138.1707  142.3236  161.7344 C.3     1  UNL1        0.1407
      6 O         138.2266  142.7560  160.2992 O.3     1  UNL1       -0.3817
      7 C         138.3379  140.8756  162.0885 C.3     1  UNL1        0.1031
      8 H         138.1013  143.7164  160.2457 H       1  UNL1        0.2105
      9 N         137.7804  144.7872  162.4614 N.3     1  UNL1       -0.2915
     10 H         137.1539  145.1903  163.1581 H       1  UNL1        0.1236
     11 C         138.9801  145.6845  162.3871 C.3     1  UNL1        0.1152
     12 C         140.3580  145.0929  162.3512 C.ar    1  UNL1        0.0765
     13 C         141.2359  145.1624  163.5655 C.ar    1  UNL1        0.0193
     14 C         142.6139  144.5708  163.5296 C.ar    1  UNL1        0.0411
     15 C         143.1140  143.9097  162.2795 C.ar    1  UNL1        0.1708
     16 C         142.2360  143.8402  161.0652 C.ar    1  UNL1        0.1682
     17 N         140.8581  144.4318  161.1010 N.ar    1  UNL1       -0.2304
     18 N         142.7361  143.1791  159.8150 N.am    1  UNL1       -0.2639
     19 C         144.1141  142.5875  159.7792 C.2     1  UNL1        0.2718
     20 O         144.6142  141.9264  158.5290 O.2     1  UNL1       -0.2707
     21 C         144.9919  142.6570  160.9935 C.3     1  UNL1        0.2898
     22 O         144.4919  143.3181  162.2436 O.3     1  UNL1       -0.4628
     23 H         142.1599  143.1335  159.0180 H       1  UNL1        0.1565
     24 C         138.4491  138.9953  163.8779 C.3     1  UNL1        0.0970
     25 C         139.6318  138.5529  164.6876 C.3     1  UNL1        0.1263
     26 C         141.7597  141.8775  166.8483 C.ar    1  UNL1        0.0699
     27 C         143.1447  142.2764  166.4326 C.ar    1  UNL1        0.0104
     28 C         143.8203  141.5670  165.2967 C.ar    1  UNL1        0.0021
     29 C         143.1110  140.4588  164.5765 C.ar    1  UNL1        0.0161
     30 C         143.7867  139.7495  163.4406 C.ar    1  UNL1        0.0063
     31 C         143.0774  138.6413  162.7203 C.ar    1  UNL1        0.0608
     32 C         141.6924  138.2424  163.1360 C.ar    1  UNL1        0.2610
     33 O         140.9831  137.1342  162.4158 O.2     1  UNL1       -0.2670
     34 N         141.0168  138.9518  164.2719 N.ar    1  UNL1       -0.2941
     35 C         141.7261  140.0600  164.9922 C.ar    1  UNL1        0.0631
     36 C         141.0505  140.7694  166.1281 C.ar    1  UNL1        0.0275
     37 N         140.4084  143.2963  169.1201 N.1     1  UNL1       -0.1908
     38 C         141.0841  142.5869  167.9842 C.1     1  UNL1        0.1005
@<TRIPOS>BOND
     1    37    38    3
     2    38    26    1
     3    26    27   ar
     4    27    28   ar
     5    28    29   ar
     6    29    30   ar
     7    30    31   ar
     8    31    32   ar
     9    32    33    2
    10    32    34   ar
    11    34    25    1
    12    25    24    1
    13    24     1    1
    14     1     2    1
    15     2     3    1
    16     3     4    1
    17     4     9    1
    18     9    11    1
    19    11    12    1
    20    12    13   ar
    21    13    14   ar
    22    14    15   ar
    23    15    16   ar
    24    16    17   ar
    25    16    18    1
    26    18    19   am
    27    19    20    2
    28    19    21    1
    29    21    22    1
    30     4     5    1
    31     5     6    1
    32     5     7    1
    33    34    35   ar
    34    35    36   ar
    35    36    26   ar
    36    35    29   ar
    37     7     1    1
    38    17    12   ar
    39    22    15    1
    40     9    10    1
    41    18    23    1
    42     6     8    1
@<TRIPOS>MOLECULE
*****
 38 42 0 0 0
SMALL
GASTEIGER

@<TRIPOS>ATOM
      1 N         137.7353  141.1098  161.2799 N.3     1  UNL1       -0.2689
      2 C         137.2751  141.0919  162.7075 C.3     1  UNL1        0.0737
      3 C         137.5150  142.2824  163.5878 C.3     1  UNL1        0.0356
      4 C         138.2153  143.4907  163.0407 C.3     1  UNL1        0.0843
      5 C         138.6755  143.5087  161.6132 C.3     1  UNL1        0.1407
      6 O         139.3758  144.7172  161.0660 O.3     1  UNL1       -0.3817
      7 C         138.4356  142.3182  160.7328 C.3     1  UNL1        0.1031
      8 H         139.4492  145.3904  161.7605 H       1  UNL1        0.2105
      9 N         138.4553  144.6813  163.9211 N.3     1  UNL1       -0.2915
     10 H         137.6071  144.8164  164.4713 H       1  UNL1        0.1236
     11 C         139.6026  144.6804  164.8873 C.3     1  UNL1        0.1152
     12 C         140.9685  144.2629  164.4293 C.ar    1  UNL1        0.0765
     13 C         141.8410  145.2336  163.6902 C.ar    1  UNL1        0.0193
     14 C         143.2070  144.8160  163.2321 C.ar    1  UNL1        0.0411
     15 C         143.7004  143.4277  163.5133 C.ar    1  UNL1        0.1708
     16 C         142.8279  142.4569  164.2525 C.ar    1  UNL1        0.1682
     17 N         141.4620  142.8745  164.7105 N.ar    1  UNL1       -0.2304
     18 N         143.3213  141.0686  164.5336 N.am    1  UNL1       -0.2639
     19 C         144.6873  140.6510  164.0756 C.2     1  UNL1        0.2718
     20 O         145.1808  139.2627  164.3567 O.2     1  UNL1       -0.2707
     21 C         145.5598  141.6218  163.3364 C.3     1  UNL1        0.2898
     22 O         145.0664  143.0101  163.0552 O.3     1  UNL1       -0.4628
     23 H         142.7487  140.4315  165.0188 H       1  UNL1        0.1565
     24 C         137.4953  139.9192  160.3995 C.3     1  UNL1        0.0970
     25 C         138.0245  138.5733  160.7976 C.3     1  UNL1        0.1263
     26 C         139.2824  138.0554  165.0870 C.ar    1  UNL1        0.0699
     27 C         140.7337  137.8910  165.4283 C.ar    1  UNL1        0.0104
     28 C         141.7658  137.8994  164.3399 C.ar    1  UNL1        0.0021
     29 C         141.3465  138.0720  162.9101 C.ar    1  UNL1        0.0161
     30 C         142.3786  138.0803  161.8216 C.ar    1  UNL1        0.0063
     31 C         141.9593  138.2530  160.3918 C.ar    1  UNL1        0.0608
     32 C         140.5079  138.4173  160.0504 C.ar    1  UNL1        0.2610
     33 O         140.0886  138.5899  158.6206 O.2     1  UNL1       -0.2670
     34 N         139.4758  138.4090  161.1389 N.ar    1  UNL1       -0.2941
     35 C         139.8952  138.2363  162.5688 C.ar    1  UNL1        0.0631
     36 C         138.8631  138.2280  163.6572 C.ar    1  UNL1        0.0275
     37 N         137.2182  138.0387  167.2639 N.1     1  UNL1       -0.1908
     38 C         138.2503  138.0470  166.1755 C.1     1  UNL1        0.1005
@<TRIPOS>BOND
     1    37    38    3
     2    38    26    1
     3    26    27   ar
     4    27    28   ar
     5    28    29   ar
     6    29    30   ar
     7    30    31   ar
     8    31    32   ar
     9    32    33    2
    10    32    34   ar
    11    34    25    1
    12    25    24    1
    13    24     1    1
    14     1     2    1
    15     2     3    1
    16     3     4    1
    17     4     9    1
    18     9    11    1
    19    11    12    1
    20    12    13   ar
    21    13    14   ar
    22    14    15   ar
    23    15    16   ar
    24    16    17   ar
    25    16    18    1
    26    18    19   am
    27    19    20    2
    28    19    21    1
    29    21    22    1
    30     4     5    1
    31     5     6    1
    32     5     7    1
    33    34    35   ar
    34    35    36   ar
    35    36    26   ar
    36    35    29   ar
    37     7     1    1
    38    17    12   ar
    39    22    15    1
    40     9    10    1
    41    18    23    1
    42     6     8    1
@<TRIPOS>MOLECULE
*****
 38 42 0 0 0
SMALL
GASTEIGER

@<TRIPOS>ATOM
      1 N         138.1353  140.0009  163.0286 N.3     1  UNL1       -0.2689
      2 C         137.9606  140.8370  164.2617 C.3     1  UNL1        0.0737
      3 C         137.8026  142.3239  164.1434 C.3     1  UNL1        0.0356
      4 C         137.8192  142.9748  162.7921 C.3     1  UNL1        0.0843
      5 C         137.9939  142.1387  161.5591 C.3     1  UNL1        0.1407
      6 O         138.0105  142.7896  160.2077 O.3     1  UNL1       -0.3817
      7 C         138.1519  140.6518  161.6773 C.3     1  UNL1        0.1031
      8 H         137.8969  143.7476  160.3089 H       1  UNL1        0.2105
      9 N         137.6611  144.4618  162.6738 N.3     1  UNL1       -0.2915
     10 H         137.0827  144.7598  163.4594 H       1  UNL1        0.1236
     11 C         138.8723  145.3466  162.6677 C.3     1  UNL1        0.1152
     12 C         140.1815  144.8223  162.1568 C.ar    1  UNL1        0.0765
     13 C         140.5274  144.9566  160.7035 C.ar    1  UNL1        0.0193
     14 C         141.8367  144.4323  160.1925 C.ar    1  UNL1        0.0411
     15 C         142.8000  143.7737  161.1350 C.ar    1  UNL1        0.1708
     16 C         142.4540  143.6394  162.5884 C.ar    1  UNL1        0.1682
     17 N         141.1448  144.1636  163.0993 N.ar    1  UNL1       -0.2304
     18 N         143.4173  142.9807  163.5309 N.am    1  UNL1       -0.2639
     19 C         144.7266  142.4564  163.0199 C.2     1  UNL1        0.2718
     20 O         145.6899  141.7978  163.9624 O.2     1  UNL1       -0.2707
     21 C         145.0725  142.5908  161.5666 C.3     1  UNL1        0.2898
     22 O         144.1092  143.2494  160.6241 O.3     1  UNL1       -0.4628
     23 H         143.1903  142.8925  164.4848 H       1  UNL1        0.1565
     24 C         138.2934  138.5139  163.1469 C.3     1  UNL1        0.0970
     25 C         139.1281  137.9338  164.2499 C.3     1  UNL1        0.1263
     26 C         140.4724  140.0183  168.0047 C.ar    1  UNL1        0.0699
     27 C         141.9051  140.4347  168.1594 C.ar    1  UNL1        0.0104
     28 C         142.8897  140.1563  167.0625 C.ar    1  UNL1        0.0021
     29 C         142.4416  139.4616  165.8110 C.ar    1  UNL1        0.0161
     30 C         143.4262  139.1832  164.7141 C.ar    1  UNL1        0.0063
     31 C         142.9781  138.4884  163.4626 C.ar    1  UNL1        0.0608
     32 C         141.5454  138.0719  163.3078 C.ar    1  UNL1        0.2610
     33 O         141.0973  137.3771  162.0562 O.2     1  UNL1       -0.2670
     34 N         140.5608  138.3503  164.4046 N.ar    1  UNL1       -0.2941
     35 C         141.0089  139.0451  165.6563 C.ar    1  UNL1        0.0631
     36 C         140.0243  139.3235  166.7531 C.ar    1  UNL1        0.0275
     37 N         138.5032  140.5750  170.1984 N.1     1  UNL1       -0.1908
     38 C         139.4878  140.2966  169.1015 C.1     1  UNL1        0.1005
@<TRIPOS>BOND
     1    37    38    3
     2    38    26    1
     3    26    27   ar
     4    27    28   ar
     5    28    29   ar
     6    29    30   ar
     7    30    31   ar
     8    31    32   ar
     9    32    33    2
    10    32    34   ar
    11    34    25    1
    12    25    24    1
    13    24     1    1
    14     1     2    1
    15     2     3    1
    16     3     4    1
    17     4     9    1
    18     9    11    1
    19    11    12    1
    20    12    13   ar
    21    13    14   ar
    22    14    15   ar
    23    15    16   ar
    24    16    17   ar
    25    16    18    1
    26    18    19   am
    27    19    20    2
    28    19    21    1
    29    21    22    1
    30     4     5    1
    31     5     6    1
    32     5     7    1
    33    34    35   ar
    34    35    36   ar
    35    36    26   ar
    36    35    29   ar
    37     7     1    1
    38    17    12   ar
    39    22    15    1
    40     9    10    1
    41    18    23    1
    42     6     8    1
@<TRIPOS>MOLECULE
*****
 38 42 0 0 0
SMALL
GASTEIGER

@<TRIPOS>ATOM
      1 N         139.5472  143.7309  163.2258 N.3     1  UNL1       -0.2689
      2 C         139.9187  143.4285  164.6473 C.3     1  UNL1        0.0737
      3 C         141.3481  143.5383  165.0885 C.3     1  UNL1        0.0356
      4 C         142.4060  143.9506  164.1083 C.3     1  UNL1        0.0843
      5 C         142.0344  144.2530  162.6868 C.3     1  UNL1        0.1407
      6 O         143.0924  144.6653  161.7066 O.3     1  UNL1       -0.3817
      7 C         140.6050  144.1432  162.2456 C.3     1  UNL1        0.1031
      8 H         143.9543  144.6864  162.1510 H       1  UNL1        0.2105
      9 N         143.8354  144.0605  164.5495 N.3     1  UNL1       -0.2915
     10 H         143.8287  144.5275  165.4563 H       1  UNL1        0.1236
     11 C         144.6693  142.8235  164.7057 C.3     1  UNL1        0.1152
     12 C         144.2707  141.5572  164.0074 C.ar    1  UNL1        0.0765
     13 C         143.8665  140.3547  164.8078 C.ar    1  UNL1        0.0193
     14 C         143.4679  139.0883  164.1096 C.ar    1  UNL1        0.0411
     15 C         143.4735  139.0245  162.6109 C.ar    1  UNL1        0.1708
     16 C         143.8777  140.2271  161.8105 C.ar    1  UNL1        0.1682
     17 N         144.2763  141.4934  162.5088 N.ar    1  UNL1       -0.2304
     18 N         143.8833  140.1633  160.3119 N.am    1  UNL1       -0.2639
     19 C         143.4847  138.8969  159.6137 C.2     1  UNL1        0.2718
     20 O         143.4903  138.8331  158.1150 O.2     1  UNL1       -0.2707
     21 C         143.0805  137.6944  160.4140 C.3     1  UNL1        0.2898
     22 O         143.0749  137.7582  161.9127 O.3     1  UNL1       -0.4628
     23 H         144.1486  140.9525  159.7866 H       1  UNL1        0.1565
     24 C         138.1177  143.6210  162.7846 C.3     1  UNL1        0.0970
     25 C         137.4818  142.2712  162.6311 C.3     1  UNL1        0.1263
     26 C         138.5673  138.7921  165.2707 C.ar    1  UNL1        0.0699
     27 C         139.3617  137.6478  164.7143 C.ar    1  UNL1        0.0104
     28 C         139.7941  137.6631  163.2781 C.ar    1  UNL1        0.0021
     29 C         139.4323  138.8228  162.3982 C.ar    1  UNL1        0.0161
     30 C         139.8648  138.8382  160.9620 C.ar    1  UNL1        0.0063
     31 C         139.5030  139.9979  160.0822 C.ar    1  UNL1        0.0608
     32 C         138.7086  141.1423  160.6385 C.ar    1  UNL1        0.2610
     33 O         138.3468  142.3019  159.7587 O.2     1  UNL1       -0.2670
     34 N         138.2761  141.1269  162.0747 N.ar    1  UNL1       -0.2941
     35 C         138.6380  139.9671  162.9546 C.ar    1  UNL1        0.0631
     36 C         138.2055  139.9517  164.3908 C.ar    1  UNL1        0.0275
     37 N         137.7024  138.7613  168.1431 N.1     1  UNL1       -0.1908
     38 C         138.1349  138.7767  166.7069 C.1     1  UNL1        0.1005
@<TRIPOS>BOND
     1    37    38    3
     2    38    26    1
     3    26    27   ar
     4    27    28   ar
     5    28    29   ar
     6    29    30   ar
     7    30    31   ar
     8    31    32   ar
     9    32    33    2
    10    32    34   ar
    11    34    25    1
    12    25    24    1
    13    24     1    1
    14     1     2    1
    15     2     3    1
    16     3     4    1
    17     4     9    1
    18     9    11    1
    19    11    12    1
    20    12    13   ar
    21    13    14   ar
    22    14    15   ar
    23    15    16   ar
    24    16    17   ar
    25    16    18    1
    26    18    19   am
    27    19    20    2
    28    19    21    1
    29    21    22    1
    30     4     5    1
    31     5     6    1
    32     5     7    1
    33    34    35   ar
    34    35    36   ar
    35    36    26   ar
    36    35    29   ar
    37     7     1    1
    38    17    12   ar
    39    22    15    1
    40     9    10    1
    41    18    23    1
    42     6     8    1
@<TRIPOS>MOLECULE
*****
 38 42 0 0 0
SMALL
GASTEIGER

@<TRIPOS>ATOM
      1 N         139.0594  143.4823  162.4656 N.3     1  UNL1       -0.2689
      2 C         139.5826  143.9624  163.7868 C.3     1  UNL1        0.0737
      3 C         140.9425  144.5895  163.8719 C.3     1  UNL1        0.0356
      4 C         141.7793  144.7365  162.6357 C.3     1  UNL1        0.0843
      5 C         141.2561  144.2564  161.3145 C.3     1  UNL1        0.1407
      6 O         142.0929  144.4034  160.0782 O.3     1  UNL1       -0.3817
      7 C         139.8961  143.6293  161.2294 C.3     1  UNL1        0.1031
      8 H         142.9361  144.8248  160.3068 H       1  UNL1        0.2105
      9 N         143.1393  145.3636  162.7208 N.3     1  UNL1       -0.2915
     10 H         143.0939  146.0662  163.4588 H       1  UNL1        0.1236
     11 C         144.3410  144.5125  163.0063 C.3     1  UNL1        0.1152
     12 C         144.2372  143.0182  162.9295 C.ar    1  UNL1        0.0765
     13 C         144.3844  142.1913  164.1722 C.ar    1  UNL1        0.0193
     14 C         144.2805  140.6968  164.0954 C.ar    1  UNL1        0.0411
     15 C         144.0294  140.0293  162.7758 C.ar    1  UNL1        0.1708
     16 C         143.8821  140.8563  161.5330 C.ar    1  UNL1        0.1682
     17 N         143.9860  142.3506  161.6098 N.ar    1  UNL1       -0.2304
     18 N         143.6310  140.1887  160.2134 N.am    1  UNL1       -0.2639
     19 C         143.5271  138.6943  160.1366 C.2     1  UNL1        0.2718
     20 O         143.2760  138.0268  158.8170 O.2     1  UNL1       -0.2707
     21 C         143.6744  137.8674  161.3794 C.3     1  UNL1        0.2898
     22 O         143.9255  138.5349  162.6990 O.3     1  UNL1       -0.4628
     23 H         143.5344  140.7315  159.3977 H       1  UNL1        0.1565
     24 C         137.6994  142.8552  162.3805 C.3     1  UNL1        0.0970
     25 C         137.4123  141.5834  163.1221 C.3     1  UNL1        0.1263
     26 C         140.3324  140.5982  166.4012 C.ar    1  UNL1        0.0699
     27 C         141.2524  139.4223  166.2578 C.ar    1  UNL1        0.0104
     28 C         141.1992  138.5748  165.0213 C.ar    1  UNL1        0.0021
     29 C         140.2259  138.9031  163.9283 C.ar    1  UNL1        0.0161
     30 C         140.1726  138.0556  162.6919 C.ar    1  UNL1        0.0063
     31 C         139.1993  138.3839  161.5988 C.ar    1  UNL1        0.0608
     32 C         138.2791  139.5599  161.7422 C.ar    1  UNL1        0.2610
     33 O         137.3057  139.8883  160.6492 O.2     1  UNL1       -0.2670
     34 N         138.3323  140.4075  162.9787 N.ar    1  UNL1       -0.2941
     35 C         139.3058  140.0790  164.0718 C.ar    1  UNL1        0.0631
     36 C         139.3590  140.9266  165.3082 C.ar    1  UNL1        0.0275
     37 N         140.4389  142.2933  168.8741 N.1     1  UNL1       -0.1908
     38 C         140.3856  141.4458  167.6377 C.1     1  UNL1        0.1005
@<TRIPOS>BOND
     1    37    38    3
     2    38    26    1
     3    26    27   ar
     4    27    28   ar
     5    28    29   ar
     6    29    30   ar
     7    30    31   ar
     8    31    32   ar
     9    32    33    2
    10    32    34   ar
    11    34    25    1
    12    25    24    1
    13    24     1    1
    14     1     2    1
    15     2     3    1
    16     3     4    1
    17     4     9    1
    18     9    11    1
    19    11    12    1
    20    12    13   ar
    21    13    14   ar
    22    14    15   ar
    23    15    16   ar
    24    16    17   ar
    25    16    18    1
    26    18    19   am
    27    19    20    2
    28    19    21    1
    29    21    22    1
    30     4     5    1
    31     5     6    1
    32     5     7    1
    33    34    35   ar
    34    35    36   ar
    35    36    26   ar
    36    35    29   ar
    37     7     1    1
    38    17    12   ar
    39    22    15    1
    40     9    10    1
    41    18    23    1
    42     6     8    1
