@<TRIPOS>MOLECULE
*****
 40 43 0 0 0
SMALL
GASTEIGER

@<TRIPOS>ATOM
      1 C         141.1256  138.5332  157.8350 C.ar    1  UNL1        0.1331
      2 C         141.9124  139.8077  157.7551 C.ar    1  UNL1        0.0346
      3 C         141.4371  141.0295  158.4840 C.ar    1  UNL1        0.0102
      4 C         140.1749  140.9767  159.2928 C.ar    1  UNL1        0.0849
      5 C         139.3881  139.7022  159.3726 C.ar    1  UNL1        0.1379
      6 N         139.8634  138.4805  158.6437 N.ar    1  UNL1       -0.2158
      7 C         142.9689  135.4425  156.3806 C.3     1  UNL1        0.0933
      8 C         141.6956  135.4200  155.5880 C.3     1  UNL1        0.0428
      9 C         140.8501  136.5751  156.0363 C.3     1  UNL1        0.0940
     10 N         141.6009  137.3114  157.1060 N.pl3   1  UNL1       -0.2915
     11 C         142.9103  136.6114  157.3188 C.3     1  UNL1        0.1117
     12 C         143.8912  133.0243  156.6086 C.2     1  UNL1        0.2460
     13 O         142.5476  132.5568  157.0842 O.2     1  UNL1       -0.2701
     14 N         144.1018  134.4672  156.2568 N.am    1  UNL1       -0.3007
     15 H         144.9836  134.7741  155.9447 H       1  UNL1        0.1497
     16 C         144.8167  130.7449  155.7733 C.2     1  UNL1        0.0048
     17 C         145.0241  132.0490  156.4848 C.2     1  UNL1        0.0577
     18 C         139.6996  142.1985  160.0217 C.2     1  UNL1        0.2455
     19 N         140.5100  142.7603  161.1520 N.am    1  UNL1       -0.3252
     20 O         138.4138  142.8586  159.6203 O.2     1  UNL1       -0.2703
     21 H         141.3539  142.3271  161.4155 H       1  UNL1        0.1453
     22 H         140.1981  143.5622  161.6304 H       1  UNL1        0.1453
     23 N         138.1259  139.6494  160.1814 N.pl3   1  UNL1       -0.2978
     24 H         137.2511  139.6623  159.7299 H       1  UNL1        0.1536
     25 C         138.1965  139.5770  161.6779 C.ar    1  UNL1        0.0494
     26 C         138.7847  138.3683  162.3434 C.ar    1  UNL1        0.0148
     27 C         138.8553  138.2959  163.8400 C.ar    1  UNL1        0.0058
     28 C         138.3377  139.4323  164.6711 C.ar    1  UNL1        0.0537
     29 C         137.7496  140.6411  164.0056 C.ar    1  UNL1        0.0058
     30 C         137.6789  140.7135  162.5091 C.ar    1  UNL1        0.0148
     31 C         138.4084  139.3599  166.1678 C.2     1  UNL1        0.2492
     32 O         137.3562  138.6134  166.9330 O.2     1  UNL1       -0.2699
     33 N         139.5312  140.0341  166.8991 N.am    1  UNL1       -0.2711
     34 C         140.5833  140.7807  166.1337 C.3     1  UNL1        0.1232
     35 C         141.7061  141.4548  166.8650 C.3     1  UNL1        0.1350
     36 C         142.7583  142.2014  166.0997 C.3     1  UNL1        0.0339
     37 O         141.7768  141.3825  168.3616 O.3     1  UNL1       -0.3552
     38 C         140.7246  140.6360  169.1269 C.3     1  UNL1        0.1350
     39 C         140.7953  140.5637  170.6235 C.3     1  UNL1        0.0339
     40 C         139.6018  139.9618  168.3956 C.3     1  UNL1        0.1232
@<TRIPOS>BOND
     1    16    17    2
     2    17    12    1
     3    12    13    2
     4    12    14   am
     5     7    14    1
     6     7     8    1
     7     8     9    1
     8     9    10    1
     9    10     1    1
    10     1     2   ar
    11     2     3   ar
    12     3     4   ar
    13     4    18    1
    14    18    19   am
    15    18    20    2
    16     4     5   ar
    17     5    23    1
    18    23    25    1
    19    25    26   ar
    20    26    27   ar
    21    27    28   ar
    22    28    31    1
    23    31    32    2
    24    31    33   am
    25    33    34    1
    26    34    35    1
    27    35    36    1
    28    35    37    1
    29    37    38    1
    30    38    39    1
    31    38    40    1
    32    28    29   ar
    33    29    30   ar
    34     5     6   ar
    35    10    11    1
    36    11     7    1
    37     6     1   ar
    38    30    25   ar
    39    40    33    1
    40    14    15    1
    41    19    21    1
    42    19    22    1
    43    23    24    1
@<TRIPOS>MOLECULE
*****
 40 43 0 0 0
SMALL
GASTEIGER

@<TRIPOS>ATOM
      1 C         139.2627  140.2115  158.0309 C.ar    1  UNL1        0.1331
      2 C         140.6712  140.7258  158.0714 C.ar    1  UNL1        0.0346
      3 C         141.6152  140.2441  159.1330 C.ar    1  UNL1        0.0102
      4 C         141.1507  139.2482  160.1539 C.ar    1  UNL1        0.0849
      5 C         139.7422  138.7339  160.1134 C.ar    1  UNL1        0.1379
      6 N         138.7982  139.2156  159.0518 N.ar    1  UNL1       -0.2158
      7 C         136.3082  141.4460  155.8371 C.3     1  UNL1        0.0933
      8 C         137.4238  141.4227  154.8345 C.3     1  UNL1        0.0428
      9 C         138.6662  140.9575  155.5343 C.3     1  UNL1        0.0940
     10 N         138.3187  140.6932  156.9693 N.pl3   1  UNL1       -0.2915
     11 C         136.8613  140.9951  157.1565 C.3     1  UNL1        0.1117
     12 C         133.7783  140.8598  155.7614 C.2     1  UNL1        0.2460
     13 O         134.0871  139.4670  156.2247 O.2     1  UNL1       -0.2701
     14 N         134.8888  141.8493  155.5676 N.am    1  UNL1       -0.3007
     15 H         134.6861  142.7634  155.2635 H       1  UNL1        0.1497
     16 C         131.2321  140.5368  156.1648 C.2     1  UNL1        0.0048
     17 C         132.3589  141.2631  155.4919 C.2     1  UNL1        0.0577
     18 C         142.0948  138.7665  161.2155 C.2     1  UNL1        0.2455
     19 N         142.7700  137.4350  161.0706 N.am    1  UNL1       -0.3252
     20 O         142.3636  139.6165  162.4218 O.2     1  UNL1       -0.2703
     21 H         142.5935  136.8771  160.2788 H       1  UNL1        0.1453
     22 H         143.3896  137.1189  161.7673 H       1  UNL1        0.1453
     23 N         139.2777  137.7380  161.1343 N.pl3   1  UNL1       -0.2978
     24 H         139.0407  136.8234  160.8575 H       1  UNL1        0.1536
     25 C         139.1743  138.1355  162.5770 C.ar    1  UNL1        0.0494
     26 C         138.3887  139.3529  162.9650 C.ar    1  UNL1        0.0148
     27 C         138.2853  139.7504  164.4077 C.ar    1  UNL1        0.0058
     28 C         138.9676  138.9305  165.4623 C.ar    1  UNL1        0.0537
     29 C         139.7533  137.7130  165.0743 C.ar    1  UNL1        0.0058
     30 C         139.8566  137.3155  163.6316 C.ar    1  UNL1        0.0148
     31 C         138.8642  139.3280  166.9051 C.2     1  UNL1        0.2492
     32 O         137.7641  138.7714  167.7594 O.2     1  UNL1       -0.2699
     33 N         139.8610  140.2821  167.4934 N.am    1  UNL1       -0.2711
     34 C         140.9611  140.8387  166.6390 C.3     1  UNL1        0.1232
     35 C         141.9579  141.7928  167.2273 C.3     1  UNL1        0.1350
     36 C         143.0580  142.3494  166.3730 C.3     1  UNL1        0.0339
     37 O         141.8545  142.1903  168.6700 O.3     1  UNL1       -0.3552
     38 C         140.7544  141.6337  169.5243 C.3     1  UNL1        0.1350
     39 C         140.6511  142.0312  170.9670 C.3     1  UNL1        0.0339
     40 C         139.7577  140.6796  168.9360 C.3     1  UNL1        0.1232
@<TRIPOS>BOND
     1    16    17    2
     2    17    12    1
     3    12    13    2
     4    12    14   am
     5     7    14    1
     6     7     8    1
     7     8     9    1
     8     9    10    1
     9    10     1    1
    10     1     2   ar
    11     2     3   ar
    12     3     4   ar
    13     4    18    1
    14    18    19   am
    15    18    20    2
    16     4     5   ar
    17     5    23    1
    18    23    25    1
    19    25    26   ar
    20    26    27   ar
    21    27    28   ar
    22    28    31    1
    23    31    32    2
    24    31    33   am
    25    33    34    1
    26    34    35    1
    27    35    36    1
    28    35    37    1
    29    37    38    1
    30    38    39    1
    31    38    40    1
    32    28    29   ar
    33    29    30   ar
    34     5     6   ar
    35    10    11    1
    36    11     7    1
    37     6     1   ar
    38    30    25   ar
    39    40    33    1
    40    14    15    1
    41    19    21    1
    42    19    22    1
    43    23    24    1
@<TRIPOS>MOLECULE
*****
 40 43 0 0 0
SMALL
GASTEIGER

@<TRIPOS>ATOM
      1 C         142.0961  138.4098  157.8285 C.ar    1  UNL1        0.1331
      2 C         141.1743  139.5904  157.7470 C.ar    1  UNL1        0.0346
      3 C         141.3523  140.7470  158.6853 C.ar    1  UNL1        0.0102
      4 C         142.4521  140.7232  159.7051 C.ar    1  UNL1        0.0849
      5 C         143.3738  139.5426  159.7866 C.ar    1  UNL1        0.1379
      6 N         143.1958  138.3860  158.8483 N.ar    1  UNL1       -0.2158
      7 C         142.3561  135.2682  155.5639 C.3     1  UNL1        0.0933
      8 C         140.9324  135.6780  155.3288 C.3     1  UNL1        0.0428
      9 C         140.6617  136.9047  156.1485 C.3     1  UNL1        0.0940
     10 N         141.9181  137.2531  156.8902 N.pl3   1  UNL1       -0.2915
     11 C         142.9653  136.2417  156.5289 C.3     1  UNL1        0.1117
     12 C         143.1434  132.7956  155.6925 C.2     1  UNL1        0.2460
     13 O         142.5450  132.6764  157.0628 O.2     1  UNL1       -0.2701
     14 N         143.0489  134.0915  154.9431 N.am    1  UNL1       -0.3007
     15 H         143.4416  134.1698  154.0437 H       1  UNL1        0.1497
     16 C         144.8761  130.8660  155.8472 C.2     1  UNL1        0.0048
     17 C         143.8362  131.6190  155.0716 C.2     1  UNL1        0.0577
     18 C         142.6300  141.8799  160.6434 C.2     1  UNL1        0.2455
     19 N         141.5036  142.2970  161.5418 N.am    1  UNL1       -0.3252
     20 O         143.9344  142.6195  160.6832 O.2     1  UNL1       -0.2703
     21 H         140.6475  141.8116  161.5157 H       1  UNL1        0.1453
     22 H         141.6204  143.0562  162.1576 H       1  UNL1        0.1453
     23 N         144.4735  139.5188  160.8064 N.pl3   1  UNL1       -0.2978
     24 H         145.4130  139.5822  160.5189 H       1  UNL1        0.1536
     25 C         144.1420  139.3983  162.2643 C.ar    1  UNL1        0.0494
     26 C         143.0587  138.4623  162.7122 C.ar    1  UNL1        0.0148
     27 C         142.7272  138.3418  164.1702 C.ar    1  UNL1        0.0058
     28 C         143.4788  139.1573  165.1802 C.ar    1  UNL1        0.0537
     29 C         144.5620  140.0932  164.7322 C.ar    1  UNL1        0.0058
     30 C         144.8936  140.2137  163.2744 C.ar    1  UNL1        0.0148
     31 C         143.1473  139.0368  166.6382 C.2     1  UNL1        0.2492
     32 O         143.7691  137.9479  167.4612 O.2     1  UNL1       -0.2699
     33 N         142.1938  140.0053  167.2730 N.am    1  UNL1       -0.2711
     34 C         141.5719  141.0942  166.4498 C.3     1  UNL1        0.1232
     35 C         140.6185  142.0627  167.0846 C.3     1  UNL1        0.1350
     36 C         139.9966  143.1516  166.2616 C.3     1  UNL1        0.0339
     37 O         140.2869  141.9422  168.5426 O.3     1  UNL1       -0.3552
     38 C         140.9088  140.8533  169.3657 C.3     1  UNL1        0.1350
     39 C         140.5772  140.7329  170.8236 C.3     1  UNL1        0.0339
     40 C         141.8622  139.8848  168.7309 C.3     1  UNL1        0.1232
@<TRIPOS>BOND
     1    16    17    2
     2    17    12    1
     3    12    13    2
     4    12    14   am
     5     7    14    1
     6     7     8    1
     7     8     9    1
     8     9    10    1
     9    10     1    1
    10     1     2   ar
    11     2     3   ar
    12     3     4   ar
    13     4    18    1
    14    18    19   am
    15    18    20    2
    16     4     5   ar
    17     5    23    1
    18    23    25    1
    19    25    26   ar
    20    26    27   ar
    21    27    28   ar
    22    28    31    1
    23    31    32    2
    24    31    33   am
    25    33    34    1
    26    34    35    1
    27    35    36    1
    28    35    37    1
    29    37    38    1
    30    38    39    1
    31    38    40    1
    32    28    29   ar
    33    29    30   ar
    34     5     6   ar
    35    10    11    1
    36    11     7    1
    37     6     1   ar
    38    30    25   ar
    39    40    33    1
    40    14    15    1
    41    19    21    1
    42    19    22    1
    43    23    24    1
@<TRIPOS>MOLECULE
*****
 40 43 0 0 0
SMALL
GASTEIGER

@<TRIPOS>ATOM
      1 C         140.5412  142.6820  166.4556 C.ar    1  UNL1        0.1331
      2 C         140.2663  143.0268  167.8893 C.ar    1  UNL1        0.0346
      3 C         140.6321  142.0602  168.9765 C.ar    1  UNL1        0.0102
      4 C         141.2727  140.7490  168.6300 C.ar    1  UNL1        0.0849
      5 C         141.5477  140.4042  167.1963 C.ar    1  UNL1        0.1379
      6 N         141.1819  141.3707  166.1091 N.ar    1  UNL1       -0.2158
      7 C         140.2635  144.9943  163.3505 C.3     1  UNL1        0.0933
      8 C         138.9617  145.2773  164.0400 C.3     1  UNL1        0.0428
      9 C         138.9073  144.4455  165.2870 C.3     1  UNL1        0.0940
     10 N         140.1755  143.6485  165.3683 N.pl3   1  UNL1       -0.2915
     11 C         141.0136  143.9877  164.1714 C.3     1  UNL1        0.1117
     12 C         140.2106  145.1001  160.7551 C.2     1  UNL1        0.2460
     13 O         139.2192  143.9747  160.7295 O.2     1  UNL1       -0.2701
     14 N         140.7327  145.6099  162.0656 N.am    1  UNL1       -0.3007
     15 H         141.3834  146.3485  162.0825 H       1  UNL1        0.1497
     16 C         141.6518  144.9793  158.5968 C.2     1  UNL1        0.0048
     17 C         140.6798  145.7157  159.4702 C.2     1  UNL1        0.0577
     18 C         141.6385  139.7824  169.7173 C.2     1  UNL1        0.2455
     19 N         140.6347  139.4269  170.7736 N.am    1  UNL1       -0.3252
     20 O         143.0081  139.1715  169.7482 O.2     1  UNL1       -0.2703
     21 H         139.7358  139.8278  170.7533 H       1  UNL1        0.1453
     22 H         140.8747  138.7925  171.4872 H       1  UNL1        0.1453
     23 N         142.1883  139.0929  166.8498 N.pl3   1  UNL1       -0.2978
     24 H         142.4295  138.4591  167.5635 H       1  UNL1        0.1536
     25 C         142.4615  138.7473  165.4160 C.ar    1  UNL1        0.0494
     26 C         143.6524  139.3330  164.7170 C.ar    1  UNL1        0.0148
     27 C         143.9255  138.9874  163.2831 C.ar    1  UNL1        0.0058
     28 C         143.0077  138.0560  162.5483 C.ar    1  UNL1        0.0537
     29 C         141.8168  137.4702  163.2472 C.ar    1  UNL1        0.0058
     30 C         141.5436  137.8159  164.6810 C.ar    1  UNL1        0.0148
     31 C         143.2808  137.7103  161.1143 C.2     1  UNL1        0.2492
     32 O         144.5621  137.0268  160.7386 O.2     1  UNL1       -0.2699
     33 N         142.2727  138.0482  160.0563 N.am    1  UNL1       -0.2711
     34 C         140.9914  138.7317  160.4322 C.3     1  UNL1        0.1232
     35 C         139.9832  139.0696  159.3741 C.3     1  UNL1        0.1350
     36 C         138.7020  139.7531  159.7499 C.3     1  UNL1        0.0339
     37 O         140.2564  138.7239  157.9402 O.3     1  UNL1       -0.3552
     38 C         141.5376  138.0404  157.5644 C.3     1  UNL1        0.1350
     39 C         141.8106  137.6948  156.1306 C.3     1  UNL1        0.0339
     40 C         142.5457  137.7026  158.6225 C.3     1  UNL1        0.1232
@<TRIPOS>BOND
     1    16    17    2
     2    17    12    1
     3    12    13    2
     4    12    14   am
     5     7    14    1
     6     7     8    1
     7     8     9    1
     8     9    10    1
     9    10     1    1
    10     1     2   ar
    11     2     3   ar
    12     3     4   ar
    13     4    18    1
    14    18    19   am
    15    18    20    2
    16     4     5   ar
    17     5    23    1
    18    23    25    1
    19    25    26   ar
    20    26    27   ar
    21    27    28   ar
    22    28    31    1
    23    31    32    2
    24    31    33   am
    25    33    34    1
    26    34    35    1
    27    35    36    1
    28    35    37    1
    29    37    38    1
    30    38    39    1
    31    38    40    1
    32    28    29   ar
    33    29    30   ar
    34     5     6   ar
    35    10    11    1
    36    11     7    1
    37     6     1   ar
    38    30    25   ar
    39    40    33    1
    40    14    15    1
    41    19    21    1
    42    19    22    1
    43    23    24    1
@<TRIPOS>MOLECULE
*****
 40 43 0 0 0
SMALL
GASTEIGER

@<TRIPOS>ATOM
      1 C         142.4234  141.6310  167.1558 C.ar    1  UNL1        0.1331
      2 C         142.6421  141.8506  168.6234 C.ar    1  UNL1        0.0346
      3 C         141.6693  141.2911  169.6185 C.ar    1  UNL1        0.0102
      4 C         140.4777  140.5119  169.1461 C.ar    1  UNL1        0.0849
      5 C         140.2590  140.2923  167.6785 C.ar    1  UNL1        0.1379
      6 N         141.2319  140.8519  166.6834 N.ar    1  UNL1       -0.2158
      7 C         144.7032  142.5146  164.1412 C.3     1  UNL1        0.0933
      8 C         145.0835  143.5887  165.1168 C.3     1  UNL1        0.0428
      9 C         144.2758  143.3884  166.3648 C.3     1  UNL1        0.0940
     10 N         143.3963  142.1906  166.1605 N.pl3   1  UNL1       -0.2915
     11 C         143.6604  141.6505  164.7862 C.3     1  UNL1        0.1117
     12 C         144.4626  142.7464  161.5647 C.2     1  UNL1        0.2460
     13 O         143.0951  143.3355  161.7454 O.2     1  UNL1       -0.2701
     14 N         145.2667  142.3359  162.7626 N.am    1  UNL1       -0.3007
     15 H         146.1643  141.9493  162.6440 H       1  UNL1        0.1497
     16 C         144.1178  142.6105  158.9932 C.2     1  UNL1        0.0048
     17 C         145.0262  142.5678  160.1861 C.2     1  UNL1        0.0577
     18 C         139.5049  139.9524  170.1414 C.2     1  UNL1        0.2455
     19 N         139.9879  139.4908  171.4844 N.am    1  UNL1       -0.3252
     20 O         138.0490  139.8545  169.7937 O.2     1  UNL1       -0.2703
     21 H         140.9434  139.5550  171.7126 H       1  UNL1        0.1453
     22 H         139.3494  139.1235  172.1376 H       1  UNL1        0.1453
     23 N         139.0675  139.5132  167.2061 N.pl3   1  UNL1       -0.2978
     24 H         138.4197  139.1608  167.8584 H       1  UNL1        0.1536
     25 C         138.8629  139.2711  165.7400 C.ar    1  UNL1        0.0494
     26 C         138.3297  140.3673  164.8660 C.ar    1  UNL1        0.0148
     27 C         138.1251  140.1251  163.3999 C.ar    1  UNL1        0.0058
     28 C         138.4538  138.7867  162.8078 C.ar    1  UNL1        0.0537
     29 C         138.9870  137.6904  163.6818 C.ar    1  UNL1        0.0058
     30 C         139.1916  137.9326  165.1479 C.ar    1  UNL1        0.0148
     31 C         138.2492  138.5445  161.3416 C.2     1  UNL1        0.2492
     32 O         136.8724  138.2754  160.8108 O.2     1  UNL1       -0.2699
     33 N         139.4216  138.5714  160.4063 N.am    1  UNL1       -0.2711
     34 C         140.7986  138.8405  160.9372 C.3     1  UNL1        0.1232
     35 C         141.9709  138.8674  160.0018 C.3     1  UNL1        0.1350
     36 C         143.3478  139.1365  160.5326 C.3     1  UNL1        0.0339
     37 O         141.7664  138.6252  158.5357 O.3     1  UNL1       -0.3552
     38 C         140.3895  138.3561  158.0049 C.3     1  UNL1        0.1350
     39 C         140.1850  138.1139  156.5388 C.3     1  UNL1        0.0339
     40 C         139.2171  138.3292  158.9402 C.3     1  UNL1        0.1232
@<TRIPOS>BOND
     1    16    17    2
     2    17    12    1
     3    12    13    2
     4    12    14   am
     5     7    14    1
     6     7     8    1
     7     8     9    1
     8     9    10    1
     9    10     1    1
    10     1     2   ar
    11     2     3   ar
    12     3     4   ar
    13     4    18    1
    14    18    19   am
    15    18    20    2
    16     4     5   ar
    17     5    23    1
    18    23    25    1
    19    25    26   ar
    20    26    27   ar
    21    27    28   ar
    22    28    31    1
    23    31    32    2
    24    31    33   am
    25    33    34    1
    26    34    35    1
    27    35    36    1
    28    35    37    1
    29    37    38    1
    30    38    39    1
    31    38    40    1
    32    28    29   ar
    33    29    30   ar
    34     5     6   ar
    35    10    11    1
    36    11     7    1
    37     6     1   ar
    38    30    25   ar
    39    40    33    1
    40    14    15    1
    41    19    21    1
    42    19    22    1
    43    23    24    1
@<TRIPOS>MOLECULE
*****
 40 43 0 0 0
SMALL
GASTEIGER

@<TRIPOS>ATOM
      1 C         137.2544  142.9293  155.4013 C.ar    1  UNL1        0.1331
      2 C         136.9806  144.2139  154.6768 C.ar    1  UNL1        0.0346
      3 C         137.8275  145.4222  154.9464 C.ar    1  UNL1        0.0102
      4 C         138.9482  145.3459  155.9405 C.ar    1  UNL1        0.0849
      5 C         139.2220  144.0613  156.6650 C.ar    1  UNL1        0.1379
      6 N         138.3750  142.8530  156.3954 N.ar    1  UNL1       -0.2158
      7 C         134.9085  139.8372  155.4403 C.3     1  UNL1        0.0933
      8 C         135.2998  139.8859  153.9930 C.3     1  UNL1        0.0428
      9 C         136.2261  141.0501  153.8023 C.3     1  UNL1        0.0940
     10 N         136.4074  141.7210  155.1316 N.pl3   1  UNL1       -0.2915
     11 C         135.5931  140.9713  156.1440 C.3     1  UNL1        0.1117
     12 C         132.5891  139.2164  156.4328 C.2     1  UNL1        0.2460
     13 O         132.1000  140.6079  156.1601 O.2     1  UNL1       -0.2701
     14 N         133.9934  138.8310  156.0729 N.am    1  UNL1       -0.3007
     15 H         134.3144  137.9177  156.2518 H       1  UNL1        0.1497
     16 C         130.3088  137.9727  156.4910 C.2     1  UNL1        0.0048
     17 C         131.6739  138.2102  157.0653 C.2     1  UNL1        0.0577
     18 C         139.7952  146.5542  156.2102 C.2     1  UNL1        0.2455
     19 N         139.1771  147.7866  156.8012 N.am    1  UNL1       -0.3252
     20 O         141.2601  146.5301  155.8888 O.2     1  UNL1       -0.2703
     21 H         138.2156  147.8024  157.0121 H       1  UNL1        0.1453
     22 H         139.7330  148.5796  156.9781 H       1  UNL1        0.1453
     23 N         140.3426  143.9850  157.6591 N.pl3   1  UNL1       -0.2978
     24 H         141.2762  143.9596  157.3475 H       1  UNL1        0.1536
     25 C         140.0410  143.9475  159.1280 C.ar    1  UNL1        0.0494
     26 C         140.3968  145.1173  159.9968 C.ar    1  UNL1        0.0148
     27 C         140.0951  145.0797  161.4658 C.ar    1  UNL1        0.0058
     28 C         139.4376  143.8724  162.0657 C.ar    1  UNL1        0.0537
     29 C         139.0818  142.7026  161.1969 C.ar    1  UNL1        0.0058
     30 C         139.3835  142.7401  159.7280 C.ar    1  UNL1        0.0148
     31 C         139.1359  143.8348  163.5347 C.2     1  UNL1        0.2492
     32 O         137.8118  144.3249  164.0411 O.2     1  UNL1       -0.2699
     33 N         140.1584  143.3071  164.4970 N.am    1  UNL1       -0.2711
     34 C         141.4825  142.8170  163.9905 C.3     1  UNL1        0.1232
     35 C         142.5050  142.2893  164.9528 C.3     1  UNL1        0.1350
     36 C         143.8290  141.7993  164.4464 C.3     1  UNL1        0.0339
     37 O         142.2033  142.2518  166.4218 O.3     1  UNL1       -0.3552
     38 C         140.8792  142.7419  166.9282 C.3     1  UNL1        0.1350
     39 C         140.5775  142.7043  168.3971 C.3     1  UNL1        0.0339
     40 C         139.8567  143.2695  165.9659 C.3     1  UNL1        0.1232
@<TRIPOS>BOND
     1    16    17    2
     2    17    12    1
     3    12    13    2
     4    12    14   am
     5     7    14    1
     6     7     8    1
     7     8     9    1
     8     9    10    1
     9    10     1    1
    10     1     2   ar
    11     2     3   ar
    12     3     4   ar
    13     4    18    1
    14    18    19   am
    15    18    20    2
    16     4     5   ar
    17     5    23    1
    18    23    25    1
    19    25    26   ar
    20    26    27   ar
    21    27    28   ar
    22    28    31    1
    23    31    32    2
    24    31    33   am
    25    33    34    1
    26    34    35    1
    27    35    36    1
    28    35    37    1
    29    37    38    1
    30    38    39    1
    31    38    40    1
    32    28    29   ar
    33    29    30   ar
    34     5     6   ar
    35    10    11    1
    36    11     7    1
    37     6     1   ar
    38    30    25   ar
    39    40    33    1
    40    14    15    1
    41    19    21    1
    42    19    22    1
    43    23    24    1
@<TRIPOS>MOLECULE
*****
 40 43 0 0 0
SMALL
GASTEIGER

@<TRIPOS>ATOM
      1 C         143.4848  136.6275  156.2382 C.ar    1  UNL1        0.1331
      2 C         144.4705  137.0775  155.2010 C.ar    1  UNL1        0.0346
      3 C         144.9007  138.5135  155.1482 C.ar    1  UNL1        0.0102
      4 C         144.3452  139.4995  156.1327 C.ar    1  UNL1        0.0849
      5 C         143.3595  139.0495  157.1699 C.ar    1  UNL1        0.1379
      6 N         142.9293  137.6135  157.2227 N.ar    1  UNL1       -0.2158
      7 C         142.8892  132.8530  156.9193 C.3     1  UNL1        0.0933
      8 C         141.8958  133.1104  155.8251 C.3     1  UNL1        0.0428
      9 C         141.9981  134.5556  155.4368 C.3     1  UNL1        0.0940
     10 N         143.0546  135.1915  156.2910 N.pl3   1  UNL1       -0.2915
     11 C         143.6053  134.1392  157.2072 C.3     1  UNL1        0.1117
     12 C         144.2600  130.6605  157.1714 C.2     1  UNL1        0.2460
     13 O         145.1593  131.0941  156.0519 O.2     1  UNL1       -0.2701
     14 N         143.1250  131.5399  157.6051 N.am    1  UNL1       -0.3007
     15 H         142.5347  131.2554  158.3398 H       1  UNL1        0.1497
     16 C         143.5249  128.8553  158.8892 C.2     1  UNL1        0.0048
     17 C         144.4958  129.3474  157.8572 C.2     1  UNL1        0.0577
     18 C         144.7755  140.9355  156.0799 C.2     1  UNL1        0.2455
     19 N         146.2266  141.2892  156.2175 N.am    1  UNL1       -0.3252
     20 O         143.7545  142.0178  155.8895 O.2     1  UNL1       -0.2703
     21 H         146.8967  140.5789  156.3424 H       1  UNL1        0.1453
     22 H         146.5090  142.2317  156.1828 H       1  UNL1        0.1453
     23 N         142.8040  140.0355  158.1544 N.pl3   1  UNL1       -0.2978
     24 H         142.5624  140.9431  157.8591 H       1  UNL1        0.1536
     25 C         142.6166  139.6388  159.5887 C.ar    1  UNL1        0.0494
     26 C         141.3029  139.8852  160.2695 C.ar    1  UNL1        0.0148
     27 C         141.1155  139.4884  161.7040 C.ar    1  UNL1        0.0058
     28 C         142.2417  138.8453  162.4575 C.ar    1  UNL1        0.0537
     29 C         143.5554  138.5989  161.7767 C.ar    1  UNL1        0.0058
     30 C         143.7429  138.9957  160.3423 C.ar    1  UNL1        0.0148
     31 C         142.0543  138.4485  163.8919 C.2     1  UNL1        0.2492
     32 O         141.5200  137.0884  164.2302 O.2     1  UNL1       -0.2699
     33 N         142.4013  139.4119  164.9880 N.am    1  UNL1       -0.2711
     34 C         142.9357  140.7721  164.6497 C.3     1  UNL1        0.1232
     35 C         143.2827  141.7355  165.7458 C.3     1  UNL1        0.1350
     36 C         143.8171  143.0957  165.4075 C.3     1  UNL1        0.0339
     37 O         143.0953  141.3388  167.1802 O.3     1  UNL1       -0.3552
     38 C         142.5610  139.9786  167.5185 C.3     1  UNL1        0.1350
     39 C         142.3736  139.5819  168.9529 C.3     1  UNL1        0.0339
     40 C         142.2140  139.0152  166.4224 C.3     1  UNL1        0.1232
@<TRIPOS>BOND
     1    16    17    2
     2    17    12    1
     3    12    13    2
     4    12    14   am
     5     7    14    1
     6     7     8    1
     7     8     9    1
     8     9    10    1
     9    10     1    1
    10     1     2   ar
    11     2     3   ar
    12     3     4   ar
    13     4    18    1
    14    18    19   am
    15    18    20    2
    16     4     5   ar
    17     5    23    1
    18    23    25    1
    19    25    26   ar
    20    26    27   ar
    21    27    28   ar
    22    28    31    1
    23    31    32    2
    24    31    33   am
    25    33    34    1
    26    34    35    1
    27    35    36    1
    28    35    37    1
    29    37    38    1
    30    38    39    1
    31    38    40    1
    32    28    29   ar
    33    29    30   ar
    34     5     6   ar
    35    10    11    1
    36    11     7    1
    37     6     1   ar
    38    30    25   ar
    39    40    33    1
    40    14    15    1
    41    19    21    1
    42    19    22    1
    43    23    24    1
@<TRIPOS>MOLECULE
*****
 40 43 0 0 0
SMALL
GASTEIGER

@<TRIPOS>ATOM
      1 C         139.5013  142.2989  163.3510 C.ar    1  UNL1        0.1331
      2 C         138.8433  142.3940  164.6956 C.ar    1  UNL1        0.0346
      3 C         138.4888  141.1451  165.4469 C.ar    1  UNL1        0.0102
      4 C         138.7922  139.8012  164.8537 C.ar    1  UNL1        0.0849
      5 C         139.4502  139.7062  163.5091 C.ar    1  UNL1        0.1379
      6 N         139.8048  140.9550  162.7578 N.ar    1  UNL1       -0.2158
      7 C         140.8605  145.0736  161.0016 C.3     1  UNL1        0.0933
      8 C         139.9426  145.8657  161.8849 C.3     1  UNL1        0.0428
      9 C         139.3217  144.9227  162.8724 C.3     1  UNL1        0.0940
     10 N         139.8559  143.5478  162.5995 N.pl3   1  UNL1       -0.2915
     11 C         140.8069  143.6411  161.4433 C.3     1  UNL1        0.1117
     12 C         141.2517  145.4065  158.4548 C.2     1  UNL1        0.2460
     13 O         139.9901  144.6498  158.1622 O.2     1  UNL1       -0.2701
     14 N         141.6869  145.6184  159.8745 N.am    1  UNL1       -0.3007
     15 H         142.5149  146.1151  160.0666 H       1  UNL1        0.1497
     16 C         142.0606  145.2742  155.9894 C.2     1  UNL1        0.0048
     17 C         142.0781  145.9513  157.3277 C.2     1  UNL1        0.0577
     18 C         138.4376  138.5523  165.6052 C.2     1  UNL1        0.2455
     19 N         137.6808  138.6437  166.8970 N.am    1  UNL1       -0.3252
     20 O         138.8399  137.2121  165.0647 O.2     1  UNL1       -0.2703
     21 H         137.4168  139.5233  167.2517 H       1  UNL1        0.1453
     22 H         137.4481  137.8240  167.3902 H       1  UNL1        0.1453
     23 N         139.7537  138.3623  162.9159 N.pl3   1  UNL1       -0.2978
     24 H         139.4926  137.5426  163.3946 H       1  UNL1        0.1536
     25 C         140.4549  138.2673  161.5934 C.ar    1  UNL1        0.0494
     26 C         141.9121  137.9155  161.5407 C.ar    1  UNL1        0.0148
     27 C         142.6134  137.8205  160.2180 C.ar    1  UNL1        0.0058
     28 C         141.8575  138.0773  158.9482 C.ar    1  UNL1        0.0537
     29 C         140.4003  138.4292  159.0009 C.ar    1  UNL1        0.0058
     30 C         139.6990  138.5242  160.3234 C.ar    1  UNL1        0.0148
     31 C         142.5587  137.9824  157.6256 C.2     1  UNL1        0.2492
     32 O         142.5144  136.7033  156.8433 O.2     1  UNL1       -0.2699
     33 N         143.3043  139.1665  157.0852 N.am    1  UNL1       -0.2711
     34 C         143.3486  140.4456  157.8676 C.3     1  UNL1        0.1232
     35 C         144.0941  141.6298  157.3272 C.3     1  UNL1        0.1350
     36 C         144.1384  142.9089  158.1095 C.3     1  UNL1        0.0339
     37 O         144.7954  141.5348  156.0046 O.3     1  UNL1       -0.3552
     38 C         144.7511  140.2557  155.2224 C.3     1  UNL1        0.1350
     39 C         145.4523  140.1608  153.8998 C.3     1  UNL1        0.0339
     40 C         144.0055  139.0716  155.7627 C.3     1  UNL1        0.1232
@<TRIPOS>BOND
     1    16    17    2
     2    17    12    1
     3    12    13    2
     4    12    14   am
     5     7    14    1
     6     7     8    1
     7     8     9    1
     8     9    10    1
     9    10     1    1
    10     1     2   ar
    11     2     3   ar
    12     3     4   ar
    13     4    18    1
    14    18    19   am
    15    18    20    2
    16     4     5   ar
    17     5    23    1
    18    23    25    1
    19    25    26   ar
    20    26    27   ar
    21    27    28   ar
    22    28    31    1
    23    31    32    2
    24    31    33   am
    25    33    34    1
    26    34    35    1
    27    35    36    1
    28    35    37    1
    29    37    38    1
    30    38    39    1
    31    38    40    1
    32    28    29   ar
    33    29    30   ar
    34     5     6   ar
    35    10    11    1
    36    11     7    1
    37     6     1   ar
    38    30    25   ar
    39    40    33    1
    40    14    15    1
    41    19    21    1
    42    19    22    1
    43    23    24    1
@<TRIPOS>MOLECULE
*****
 40 43 0 0 0
SMALL
GASTEIGER

@<TRIPOS>ATOM
      1 C         142.8863  134.9224  156.6364 C.ar    1  UNL1        0.1331
      2 C         141.7369  134.9899  155.6751 C.ar    1  UNL1        0.0346
      3 C         140.9129  136.2394  155.5779 C.ar    1  UNL1        0.0102
      4 C         141.2382  137.4215  156.4421 C.ar    1  UNL1        0.0849
      5 C         142.3876  137.3541  157.4035 C.ar    1  UNL1        0.1379
      6 N         143.2117  136.1045  157.5006 N.ar    1  UNL1       -0.2158
      7 C         144.7667  131.5563  156.1904 C.3     1  UNL1        0.0933
      8 C         145.1908  131.9438  157.5761 C.3     1  UNL1        0.0428
      9 C         144.5380  133.2519  157.9118 C.3     1  UNL1        0.0940
     10 N         143.7105  133.6728  156.7336 N.pl3   1  UNL1       -0.2915
     11 C         143.8519  132.6249  155.6698 C.3     1  UNL1        0.1117
     12 C         144.4093  129.0451  155.6282 C.2     1  UNL1        0.2460
     13 O         143.2169  129.0112  156.5375 O.2     1  UNL1       -0.2701
     14 N         145.1842  130.3176  155.4546 N.am    1  UNL1       -0.3007
     15 H         145.9669  130.3399  154.8577 H       1  UNL1        0.1497
     16 C         146.2296  127.2921  155.0252 C.2     1  UNL1        0.0048
     17 C         144.8268  127.8064  154.8923 C.2     1  UNL1        0.0577
     18 C         140.4140  138.6711  156.3449 C.2     1  UNL1        0.2455
     19 N         139.1411  138.7929  157.1290 N.am    1  UNL1       -0.3252
     20 O         140.8628  139.7989  155.4636 O.2     1  UNL1       -0.2703
     21 H         138.8465  138.0527  157.7074 H       1  UNL1        0.1453
     22 H         138.6002  139.6130  157.0652 H       1  UNL1        0.1453
     23 N         142.7129  138.5361  158.2677 N.pl3   1  UNL1       -0.2978
     24 H         143.0582  139.3634  157.8606 H       1  UNL1        0.1536
     25 C         142.5122  138.4579  159.7521 C.ar    1  UNL1        0.0494
     26 C         141.1692  138.7666  160.3447 C.ar    1  UNL1        0.0148
     27 C         140.9686  138.6883  161.8292 C.ar    1  UNL1        0.0058
     28 C         142.1108  138.3013  162.7210 C.ar    1  UNL1        0.0537
     29 C         143.4538  137.9926  162.1284 C.ar    1  UNL1        0.0058
     30 C         143.6545  138.0709  160.6440 C.ar    1  UNL1        0.0148
     31 C         141.9102  138.2230  164.2055 C.2     1  UNL1        0.2492
     32 O         141.3027  136.9951  164.8165 O.2     1  UNL1       -0.2699
     33 N         142.3169  139.3726  165.0790 N.am    1  UNL1       -0.2711
     34 C         142.9244  140.6005  164.4679 C.3     1  UNL1        0.1232
     35 C         143.3312  141.7502  165.3413 C.3     1  UNL1        0.1350
     36 C         143.9386  142.9780  164.7304 C.3     1  UNL1        0.0339
     37 O         143.1305  141.6719  166.8259 O.3     1  UNL1       -0.3552
     38 C         142.5231  140.4440  167.4368 C.3     1  UNL1        0.1350
     39 C         142.3224  140.3658  168.9213 C.3     1  UNL1        0.0339
     40 C         142.1163  139.2944  166.5634 C.3     1  UNL1        0.1232
@<TRIPOS>BOND
     1    16    17    2
     2    17    12    1
     3    12    13    2
     4    12    14   am
     5     7    14    1
     6     7     8    1
     7     8     9    1
     8     9    10    1
     9    10     1    1
    10     1     2   ar
    11     2     3   ar
    12     3     4   ar
    13     4    18    1
    14    18    19   am
    15    18    20    2
    16     4     5   ar
    17     5    23    1
    18    23    25    1
    19    25    26   ar
    20    26    27   ar
    21    27    28   ar
    22    28    31    1
    23    31    32    2
    24    31    33   am
    25    33    34    1
    26    34    35    1
    27    35    36    1
    28    35    37    1
    29    37    38    1
    30    38    39    1
    31    38    40    1
    32    28    29   ar
    33    29    30   ar
    34     5     6   ar
    35    10    11    1
    36    11     7    1
    37     6     1   ar
    38    30    25   ar
    39    40    33    1
    40    14    15    1
    41    19    21    1
    42    19    22    1
    43    23    24    1
