@<TRIPOS>MOLECULE
*****
 33 36 0 0 0
SMALL
GASTEIGER

@<TRIPOS>ATOM
      1 C         142.1911  140.1394  164.2820 C.2     1  UNL1        0.1397
      2 C         142.6723  140.4359  162.8926 C.2     1  UNL1        0.1355
      3 N         142.2158  141.6802  162.1904 N.pl3   1  UNL1       -0.1989
      4 C         141.2781  142.6281  162.8775 C.2     1  UNL1        0.3548
      5 N         140.7969  142.3316  164.2669 N.2     1  UNL1       -0.0571
      6 C         141.2534  141.0872  164.9692 C.3     1  UNL1        0.2692
      7 H         142.5317  141.8748  161.2785 H       1  UNL1        0.2983
      8 C         140.7721  140.7908  166.3587 C.ar    1  UNL1        0.0371
      9 C         139.5092  140.0078  166.5638 C.ar    1  UNL1        0.0030
     10 C         139.0279  139.7114  167.9532 C.ar    1  UNL1        0.0295
     11 C         139.8096  140.1978  169.1375 C.ar    1  UNL1        0.1406
     12 F         139.3283  139.9013  170.5269 F       1  UNL1       -0.2042
     13 C         141.0725  140.9807  168.9323 C.ar    1  UNL1        0.0362
     14 C         141.5538  141.2772  167.5429 C.ar    1  UNL1        0.0372
     15 BR        142.8167  142.0601  167.3377 Br      1  UNL1       -0.0491
     16 C         140.8217  143.8725  162.1753 C.ar    1  UNL1        0.2279
     17 N         141.1910  144.2839  160.7809 N.ar    1  UNL1       -0.2186
     18 C         140.5133  145.5896  160.4879 C.ar    1  UNL1        0.1194
     19 C         139.7251  145.9852  161.7013 C.ar    1  UNL1        0.0982
     20 N         139.9157  144.9240  162.7441 N.ar    1  UNL1       -0.3023
     21 C         139.3070  144.9157  164.1150 C.3     1  UNL1        0.1322
     22 C         142.6476  138.8950  164.9843 C.2     1  UNL1        0.3447
     23 O         143.9820  138.8666  165.6686 O.2     1  UNL1       -0.2450
     24 O         141.7696  137.6790  165.0022 O.3     1  UNL1       -0.4455
     25 C         139.5845  137.6365  163.5973 C.3     1  UNL1        0.0513
     26 C         141.0295  137.2698  163.7633 C.3     1  UNL1        0.2089
     27 C         143.6100  139.4879  162.2054 C.3     1  UNL1        0.1405
     28 N         143.4638  139.2213  160.7366 N.3     1  UNL1       -0.2617
     29 C         142.8818  137.9219  160.2645 C.3     1  UNL1        0.1050
     30 C         142.7356  137.6553  158.7956 C.3     1  UNL1        0.1595
     31 O         143.1713  138.6880  157.7989 O.3     1  UNL1       -0.3508
     32 C         143.7533  139.9874  158.2710 C.3     1  UNL1        0.1595
     33 C         143.8996  140.2540  159.7398 C.3     1  UNL1        0.1050
@<TRIPOS>BOND
     1    25    26    1
     2    26    24    1
     3    24    22    1
     4    22    23    2
     5    22     1    1
     6     1     2    2
     7     2    27    1
     8    27    28    1
     9    28    29    1
    10    29    30    1
    11    30    31    1
    12    31    32    1
    13    32    33    1
    14     2     3    1
    15     3     4    1
    16     4    16    1
    17    16    17   ar
    18    17    18   ar
    19    18    19   ar
    20    19    20   ar
    21    20    21    1
    22     4     5    2
    23     5     6    1
    24     6     8    1
    25     8     9   ar
    26     9    10   ar
    27    10    11   ar
    28    11    12    1
    29    11    13   ar
    30    13    14   ar
    31    14    15    1
    32     6     1    1
    33    14     8   ar
    34    33    28    1
    35    20    16   ar
    36     3     7    1
@<TRIPOS>MOLECULE
*****
 33 36 0 0 0
SMALL
GASTEIGER

@<TRIPOS>ATOM
      1 C         140.2578  139.4755  164.0507 C.2     1  UNL1        0.1397
      2 C         139.9363  139.6938  162.6020 C.2     1  UNL1        0.1355
      3 N         139.9250  141.0834  162.0373 N.pl3   1  UNL1       -0.1989
      4 C         140.2352  142.2547  162.9214 C.2     1  UNL1        0.3548
      5 N         140.5566  142.0365  164.3702 N.2     1  UNL1       -0.0571
      6 C         140.5679  140.6469  164.9348 C.3     1  UNL1        0.2692
      7 H         139.7140  141.2266  161.0864 H       1  UNL1        0.2983
      8 C         140.8894  140.4286  166.3837 C.ar    1  UNL1        0.0371
      9 C         139.8007  140.5025  167.4129 C.ar    1  UNL1        0.0030
     10 C         140.1221  140.2843  168.8617 C.ar    1  UNL1        0.0295
     11 C         141.5324  139.9922  169.2813 C.ar    1  UNL1        0.1406
     12 F         141.8538  139.7740  170.7301 F       1  UNL1       -0.2042
     13 C         142.6211  139.9184  168.2521 C.ar    1  UNL1        0.0362
     14 C         142.2996  140.1366  166.8033 C.ar    1  UNL1        0.0372
     15 BR        143.3883  140.0627  165.7741 Br      1  UNL1       -0.0491
     16 C         140.2239  143.6444  162.3567 C.ar    1  UNL1        0.2279
     17 N         140.8453  144.0747  161.0611 N.ar    1  UNL1       -0.2186
     18 C         140.5946  145.5439  160.8922 C.ar    1  UNL1        0.1194
     19 C         139.8182  146.0217  162.0834 C.ar    1  UNL1        0.0982
     20 N         139.5891  144.8477  162.9885 N.ar    1  UNL1       -0.3023
     21 C         138.8542  144.8726  164.2959 C.3     1  UNL1        0.1322
     22 C         140.2691  138.0859  164.6154 C.2     1  UNL1        0.3447
     23 O         141.5580  137.3242  164.7073 O.2     1  UNL1       -0.2450
     24 O         138.9915  137.4580  165.0881 O.3     1  UNL1       -0.4455
     25 C         137.3414  137.4989  167.0945 C.3     1  UNL1        0.0513
     26 C         138.0757  138.2175  166.0016 C.3     1  UNL1        0.2089
     27 C         139.6261  138.5224  161.7178 C.3     1  UNL1        0.1405
     28 N         140.3477  138.3555  160.4134 N.3     1  UNL1       -0.2617
     29 C         141.8318  138.1381  160.3998 C.3     1  UNL1        0.1050
     30 C         142.5534  137.9712  159.0953 C.3     1  UNL1        0.1595
     31 O         141.7908  138.0216  157.8046 O.3     1  UNL1       -0.3508
     32 C         140.3067  138.2389  157.8183 C.3     1  UNL1        0.1595
     33 C         139.5852  138.4059  159.1226 C.3     1  UNL1        0.1050
@<TRIPOS>BOND
     1    25    26    1
     2    26    24    1
     3    24    22    1
     4    22    23    2
     5    22     1    1
     6     1     2    2
     7     2    27    1
     8    27    28    1
     9    28    29    1
    10    29    30    1
    11    30    31    1
    12    31    32    1
    13    32    33    1
    14     2     3    1
    15     3     4    1
    16     4    16    1
    17    16    17   ar
    18    17    18   ar
    19    18    19   ar
    20    19    20   ar
    21    20    21    1
    22     4     5    2
    23     5     6    1
    24     6     8    1
    25     8     9   ar
    26     9    10   ar
    27    10    11   ar
    28    11    12    1
    29    11    13   ar
    30    13    14   ar
    31    14    15    1
    32     6     1    1
    33    14     8   ar
    34    33    28    1
    35    20    16   ar
    36     3     7    1
@<TRIPOS>MOLECULE
*****
 33 36 0 0 0
SMALL
GASTEIGER

@<TRIPOS>ATOM
      1 C         140.6092  140.3695  164.4131 C.2     1  UNL1        0.1397
      2 C         140.2406  140.2947  162.9611 C.2     1  UNL1        0.1355
      3 N         140.0687  141.5544  162.1651 N.pl3   1  UNL1       -0.1989
      4 C         140.2654  142.8889  162.8211 C.2     1  UNL1        0.3548
      5 N         140.6339  142.9637  164.2731 N.2     1  UNL1       -0.0571
      6 C         140.8058  141.7040  165.0692 C.3     1  UNL1        0.2692
      7 H         139.8268  141.5053  161.2120 H       1  UNL1        0.2983
      8 C         141.1744  141.7789  166.5213 C.ar    1  UNL1        0.0371
      9 C         140.1343  141.5291  167.5729 C.ar    1  UNL1        0.0030
     10 C         140.5028  141.6040  169.0250 C.ar    1  UNL1        0.0295
     11 C         141.9115  141.9285  169.4255 C.ar    1  UNL1        0.1406
     12 F         142.2800  142.0034  170.8776 F       1  UNL1       -0.2042
     13 C         142.9516  142.1783  168.3739 C.ar    1  UNL1        0.0362
     14 C         142.5830  142.1034  166.9218 C.ar    1  UNL1        0.0372
     15 BR        143.6231  142.3532  165.8702 Br      1  UNL1       -0.0491
     16 C         140.0935  144.1486  162.0251 C.ar    1  UNL1        0.2279
     17 N         139.1392  145.2637  162.3344 N.ar    1  UNL1       -0.2186
     18 C         139.3016  146.3187  161.2805 C.ar    1  UNL1        0.1194
     19 C         140.3563  145.8555  160.3197 C.ar    1  UNL1        0.0982
     20 N         140.8457  144.5143  160.7799 N.ar    1  UNL1       -0.3023
     21 C         141.9018  143.6845  160.1121 C.3     1  UNL1        0.1322
     22 C         140.7811  139.1098  165.2091 C.2     1  UNL1        0.3447
     23 O         142.1407  138.7158  165.7053 O.2     1  UNL1       -0.2450
     24 O         139.5934  138.2441  165.5090 O.3     1  UNL1       -0.4455
     25 C         137.6563  138.6313  167.1965 C.3     1  UNL1        0.0513
     26 C         138.2749  138.8721  165.8513 C.3     1  UNL1        0.2089
     27 C         140.0440  138.9602  162.3049 C.3     1  UNL1        0.1405
     28 N         140.9188  138.5528  161.1566 N.3     1  UNL1       -0.2617
     29 C         140.4734  138.8077  159.7472 C.3     1  UNL1        0.1050
     30 C         141.3483  138.4003  158.5988 C.3     1  UNL1        0.1595
     31 O         142.6686  137.7380  158.8600 O.3     1  UNL1       -0.3508
     32 C         143.1140  137.4831  160.2695 C.3     1  UNL1        0.1595
     33 C         142.2391  137.8904  161.4178 C.3     1  UNL1        0.1050
@<TRIPOS>BOND
     1    25    26    1
     2    26    24    1
     3    24    22    1
     4    22    23    2
     5    22     1    1
     6     1     2    2
     7     2    27    1
     8    27    28    1
     9    28    29    1
    10    29    30    1
    11    30    31    1
    12    31    32    1
    13    32    33    1
    14     2     3    1
    15     3     4    1
    16     4    16    1
    17    16    17   ar
    18    17    18   ar
    19    18    19   ar
    20    19    20   ar
    21    20    21    1
    22     4     5    2
    23     5     6    1
    24     6     8    1
    25     8     9   ar
    26     9    10   ar
    27    10    11   ar
    28    11    12    1
    29    11    13   ar
    30    13    14   ar
    31    14    15    1
    32     6     1    1
    33    14     8   ar
    34    33    28    1
    35    20    16   ar
    36     3     7    1
@<TRIPOS>MOLECULE
*****
 33 36 0 0 0
SMALL
GASTEIGER

@<TRIPOS>ATOM
      1 C         139.8832  141.2290  160.9011 C.2     1  UNL1        0.1397
      2 C         140.0456  140.5110  159.5942 C.2     1  UNL1        0.1355
      3 N         139.4452  141.0833  158.3444 N.pl3   1  UNL1       -0.1989
      4 C         138.6824  142.3736  158.4015 C.2     1  UNL1        0.3548
      5 N         138.5200  143.0916  159.7084 N.2     1  UNL1       -0.0571
      6 C         139.1204  142.5193  160.9582 C.3     1  UNL1        0.2692
      7 H         139.5518  140.6120  157.4866 H       1  UNL1        0.2983
      8 C         138.9579  143.2374  162.2652 C.ar    1  UNL1        0.0371
      9 C         137.7545  142.9742  163.1210 C.ar    1  UNL1        0.0030
     10 C         137.5920  143.6922  164.4279 C.ar    1  UNL1        0.0295
     11 C         138.6330  144.6735  164.8790 C.ar    1  UNL1        0.1406
     12 F         138.4705  145.3915  166.1859 F       1  UNL1       -0.2042
     13 C         139.8365  144.9367  164.0232 C.ar    1  UNL1        0.0362
     14 C         139.9989  144.2186  162.7163 C.ar    1  UNL1        0.0372
     15 BR        141.2024  144.4818  161.8605 Br      1  UNL1       -0.0491
     16 C         138.0820  142.9458  157.1517 C.ar    1  UNL1        0.2279
     17 N         136.8350  142.4636  156.4717 N.ar    1  UNL1       -0.2186
     18 C         136.6055  143.3205  155.2622 C.ar    1  UNL1        0.1194
     19 C         137.7107  144.3324  155.1946 C.ar    1  UNL1        0.0982
     20 N         138.6232  144.1008  156.3623 N.ar    1  UNL1       -0.3023
     21 C         139.8599  144.8864  156.6843 C.3     1  UNL1        0.1322
     22 C         140.4836  140.6568  162.1510 C.2     1  UNL1        0.3447
     23 O         141.9464  140.8356  162.4302 O.2     1  UNL1       -0.2450
     24 O         139.6211  139.9057  163.1215 O.3     1  UNL1       -0.4455
     25 C         138.2151  138.0325  161.9972 C.3     1  UNL1        0.0513
     26 C         138.2929  139.3649  162.6818 C.3     1  UNL1        0.2089
     27 C         140.8084  139.2207  159.5371 C.3     1  UNL1        0.1405
     28 N         141.8807  139.0284  158.5060 N.3     1  UNL1       -0.2617
     29 C         142.8674  140.1256  158.2364 C.3     1  UNL1        0.1050
     30 C         143.9397  139.9332  157.2052 C.3     1  UNL1        0.1595
     31 O         144.0253  138.6437  156.4438 O.3     1  UNL1       -0.3508
     32 C         143.0387  137.5465  156.7135 C.3     1  UNL1        0.1595
     33 C         141.9664  137.7388  157.7445 C.3     1  UNL1        0.1050
@<TRIPOS>BOND
     1    25    26    1
     2    26    24    1
     3    24    22    1
     4    22    23    2
     5    22     1    1
     6     1     2    2
     7     2    27    1
     8    27    28    1
     9    28    29    1
    10    29    30    1
    11    30    31    1
    12    31    32    1
    13    32    33    1
    14     2     3    1
    15     3     4    1
    16     4    16    1
    17    16    17   ar
    18    17    18   ar
    19    18    19   ar
    20    19    20   ar
    21    20    21    1
    22     4     5    2
    23     5     6    1
    24     6     8    1
    25     8     9   ar
    26     9    10   ar
    27    10    11   ar
    28    11    12    1
    29    11    13   ar
    30    13    14   ar
    31    14    15    1
    32     6     1    1
    33    14     8   ar
    34    33    28    1
    35    20    16   ar
    36     3     7    1
@<TRIPOS>MOLECULE
*****
 33 36 0 0 0
SMALL
GASTEIGER

@<TRIPOS>ATOM
      1 C         140.1488  139.7358  164.5000 C.2     1  UNL1        0.1397
      2 C         139.9830  139.9194  163.0206 C.2     1  UNL1        0.1355
      3 N         139.8865  141.3001  162.4423 N.pl3   1  UNL1       -0.1989
      4 C         139.9558  142.4972  163.3435 C.2     1  UNL1        0.3548
      5 N         140.1217  142.3135  164.8229 N.2     1  UNL1       -0.0571
      6 C         140.2182  140.9328  165.4012 C.3     1  UNL1        0.2692
      7 H         139.7776  141.4206  161.4713 H       1  UNL1        0.2983
      8 C         140.3841  140.7492  166.8807 C.ar    1  UNL1        0.0371
      9 C         139.2703  140.1573  167.6925 C.ar    1  UNL1        0.0030
     10 C         139.4361  139.9737  169.1719 C.ar    1  UNL1        0.0295
     11 C         140.7158  140.3820  169.8396 C.ar    1  UNL1        0.1406
     12 F         140.8816  140.1984  171.3190 F       1  UNL1       -0.2042
     13 C         141.8296  140.9740  169.0278 C.ar    1  UNL1        0.0362
     14 C         141.6637  141.1576  167.5483 C.ar    1  UNL1        0.0372
     15 BR        142.7775  141.7495  166.7365 Br      1  UNL1       -0.0491
     16 C         139.8593  143.8779  162.7653 C.ar    1  UNL1        0.2279
     17 N         138.6785  144.4482  162.0371 N.ar    1  UNL1       -0.2186
     18 C         139.0160  145.8535  161.6355 C.ar    1  UNL1        0.1194
     19 C         140.4056  146.1516  162.1154 C.ar    1  UNL1        0.0982
     20 N         140.9267  144.9306  162.8137 N.ar    1  UNL1       -0.3023
     21 C         142.2780  144.7875  163.4489 C.3     1  UNL1        0.1322
     22 C         140.2453  138.3551  165.0782 C.2     1  UNL1        0.3447
     23 O         139.0242  137.6910  165.6420 O.2     1  UNL1       -0.2450
     24 O         141.5630  137.6384  165.0927 O.3     1  UNL1       -0.4455
     25 C         143.7281  138.1097  166.4492 C.3     1  UNL1        0.0513
     26 C         142.8348  138.4107  165.2824 C.3     1  UNL1        0.2089
     27 C         139.9136  138.7223  162.1193 C.3     1  UNL1        0.1405
     28 N         141.0185  138.4553  161.1406 N.3     1  UNL1       -0.2617
     29 C         142.3434  137.9460  161.6258 C.3     1  UNL1        0.1050
     30 C         143.4483  137.6790  160.6470 C.3     1  UNL1        0.1595
     31 O         143.2283  137.9213  159.1832 O.3     1  UNL1       -0.3508
     32 C         141.9035  138.4306  158.6980 C.3     1  UNL1        0.1595
     33 C         140.7986  138.6976  159.6767 C.3     1  UNL1        0.1050
@<TRIPOS>BOND
     1    25    26    1
     2    26    24    1
     3    24    22    1
     4    22    23    2
     5    22     1    1
     6     1     2    2
     7     2    27    1
     8    27    28    1
     9    28    29    1
    10    29    30    1
    11    30    31    1
    12    31    32    1
    13    32    33    1
    14     2     3    1
    15     3     4    1
    16     4    16    1
    17    16    17   ar
    18    17    18   ar
    19    18    19   ar
    20    19    20   ar
    21    20    21    1
    22     4     5    2
    23     5     6    1
    24     6     8    1
    25     8     9   ar
    26     9    10   ar
    27    10    11   ar
    28    11    12    1
    29    11    13   ar
    30    13    14   ar
    31    14    15    1
    32     6     1    1
    33    14     8   ar
    34    33    28    1
    35    20    16   ar
    36     3     7    1
@<TRIPOS>MOLECULE
*****
 33 36 0 0 0
SMALL
GASTEIGER

@<TRIPOS>ATOM
      1 C         142.4045  142.5614  163.7426 C.2     1  UNL1        0.1397
      2 C         142.2398  142.4540  162.2556 C.2     1  UNL1        0.1355
      3 N         141.1485  141.5998  161.6816 N.pl3   1  UNL1       -0.1989
      4 C         140.2219  140.8530  162.5946 C.2     1  UNL1        0.3548
      5 N         140.3866  140.9604  164.0817 N.2     1  UNL1       -0.0571
      6 C         141.4779  141.8146  164.6557 C.3     1  UNL1        0.2692
      7 H         141.0405  141.5294  160.7056 H       1  UNL1        0.2983
      8 C         141.6425  141.9220  166.1428 C.ar    1  UNL1        0.0371
      9 C         142.7059  141.1256  166.8390 C.ar    1  UNL1        0.0030
     10 C         142.8706  141.2329  168.3261 C.ar    1  UNL1        0.0295
     11 C         141.9718  142.1367  169.1169 C.ar    1  UNL1        0.1406
     12 F         142.1365  142.2440  170.6040 F       1  UNL1       -0.2042
     13 C         140.9084  142.9332  168.4207 C.ar    1  UNL1        0.0362
     14 C         140.7438  142.8258  166.9335 C.ar    1  UNL1        0.0372
     15 BR        139.6803  143.6222  166.2373 Br      1  UNL1       -0.0491
     16 C         139.1307  139.9988  162.0206 C.ar    1  UNL1        0.2279
     17 N         137.9924  140.4771  161.1688 N.ar    1  UNL1       -0.2186
     18 C         137.1443  139.2903  160.8194 C.ar    1  UNL1        0.1194
     19 C         137.7584  138.0784  161.4552 C.ar    1  UNL1        0.0982
     20 N         138.9861  138.5164  162.1976 N.ar    1  UNL1       -0.3023
     21 C         139.9074  137.6278  162.9797 C.3     1  UNL1        0.1322
     22 C         143.4957  143.4156  164.3167 C.2     1  UNL1        0.3447
     23 O         143.3058  144.8992  164.4299 O.2     1  UNL1       -0.2450
     24 O         144.7770  142.7863  164.7774 O.3     1  UNL1       -0.4455
     25 C         145.2001  140.3111  164.1104 C.3     1  UNL1        0.0513
     26 C         145.4684  141.7738  163.9132 C.3     1  UNL1        0.2089
     27 C         143.1664  143.2009  161.3425 C.3     1  UNL1        0.1405
     28 N         142.6459  143.7927  160.0663 N.3     1  UNL1       -0.2617
     29 C         141.5497  144.8158  160.1064 C.3     1  UNL1        0.1050
     30 C         141.0292  145.4077  158.8301 C.3     1  UNL1        0.1595
     31 O         141.6050  144.9765  157.5138 O.3     1  UNL1       -0.3508
     32 C         142.7012  143.9534  157.4738 C.3     1  UNL1        0.1595
     33 C         143.2217  143.3615  158.7500 C.3     1  UNL1        0.1050
@<TRIPOS>BOND
     1    25    26    1
     2    26    24    1
     3    24    22    1
     4    22    23    2
     5    22     1    1
     6     1     2    2
     7     2    27    1
     8    27    28    1
     9    28    29    1
    10    29    30    1
    11    30    31    1
    12    31    32    1
    13    32    33    1
    14     2     3    1
    15     3     4    1
    16     4    16    1
    17    16    17   ar
    18    17    18   ar
    19    18    19   ar
    20    19    20   ar
    21    20    21    1
    22     4     5    2
    23     5     6    1
    24     6     8    1
    25     8     9   ar
    26     9    10   ar
    27    10    11   ar
    28    11    12    1
    29    11    13   ar
    30    13    14   ar
    31    14    15    1
    32     6     1    1
    33    14     8   ar
    34    33    28    1
    35    20    16   ar
    36     3     7    1
@<TRIPOS>MOLECULE
*****
 33 36 0 0 0
SMALL
GASTEIGER

@<TRIPOS>ATOM
      1 C         140.6423  140.7080  163.8742 C.2     1  UNL1        0.1397
      2 C         140.8833  139.4134  164.5923 C.2     1  UNL1        0.1355
      3 N         140.9177  139.3824  166.0916 N.pl3   1  UNL1       -0.1989
      4 C         140.7110  140.6461  166.8727 C.2     1  UNL1        0.3548
      5 N         140.4699  141.9408  166.1546 N.2     1  UNL1       -0.0571
      6 C         140.4356  141.9717  164.6554 C.3     1  UNL1        0.2692
      7 H         141.0759  138.5327  166.5629 H       1  UNL1        0.2983
      8 C         140.1945  143.2665  163.9373 C.ar    1  UNL1        0.0371
      9 C         141.3483  144.1650  163.6034 C.ar    1  UNL1        0.0030
     10 C         141.1073  145.4597  162.8854 C.ar    1  UNL1        0.0295
     11 C         139.7125  145.8559  162.5011 C.ar    1  UNL1        0.1406
     12 F         139.4715  147.1506  161.7830 F       1  UNL1       -0.2042
     13 C         138.5587  144.9574  162.8349 C.ar    1  UNL1        0.0362
     14 C         138.7998  143.6626  163.5530 C.ar    1  UNL1        0.0372
     15 BR        137.6460  142.7641  163.8869 Br      1  UNL1       -0.0491
     16 C         140.7453  140.6152  168.3720 C.ar    1  UNL1        0.2279
     17 N         139.7771  139.8930  169.2614 N.ar    1  UNL1       -0.2186
     18 C         140.1872  140.1324  170.6842 C.ar    1  UNL1        0.1194
     19 C         141.4090  141.0026  170.6742 C.ar    1  UNL1        0.0982
     20 N         141.7539  141.3009  169.2452 N.ar    1  UNL1       -0.3023
     21 C         142.9052  142.1381  168.7724 C.3     1  UNL1        0.1322
     22 C         140.6080  140.7390  162.3749 C.2     1  UNL1        0.3447
     23 O         141.8116  141.1979  161.6064 O.2     1  UNL1       -0.2450
     24 O         139.3700  140.3110  161.6440 O.3     1  UNL1       -0.4455
     25 C         138.5998  142.2843  160.1396 C.3     1  UNL1        0.0513
     26 C         139.0721  140.8678  160.2834 C.3     1  UNL1        0.2089
     27 C         141.0901  138.1496  163.8111 C.3     1  UNL1        0.1405
     28 N         142.0956  138.1115  162.6987 N.3     1  UNL1       -0.2617
     29 C         141.6826  137.6585  161.3296 C.3     1  UNL1        0.1050
     30 C         142.6882  137.6204  160.2172 C.3     1  UNL1        0.1595
     31 O         144.1066  138.0353  160.4738 O.3     1  UNL1       -0.3508
     32 C         144.5196  138.4883  161.8429 C.3     1  UNL1        0.1595
     33 C         143.5141  138.5264  162.9553 C.3     1  UNL1        0.1050
@<TRIPOS>BOND
     1    25    26    1
     2    26    24    1
     3    24    22    1
     4    22    23    2
     5    22     1    1
     6     1     2    2
     7     2    27    1
     8    27    28    1
     9    28    29    1
    10    29    30    1
    11    30    31    1
    12    31    32    1
    13    32    33    1
    14     2     3    1
    15     3     4    1
    16     4    16    1
    17    16    17   ar
    18    17    18   ar
    19    18    19   ar
    20    19    20   ar
    21    20    21    1
    22     4     5    2
    23     5     6    1
    24     6     8    1
    25     8     9   ar
    26     9    10   ar
    27    10    11   ar
    28    11    12    1
    29    11    13   ar
    30    13    14   ar
    31    14    15    1
    32     6     1    1
    33    14     8   ar
    34    33    28    1
    35    20    16   ar
    36     3     7    1
@<TRIPOS>MOLECULE
*****
 33 36 0 0 0
SMALL
GASTEIGER

@<TRIPOS>ATOM
      1 C         140.4294  141.1905  160.8604 C.2     1  UNL1        0.1397
      2 C         140.6302  140.3518  159.6332 C.2     1  UNL1        0.1355
      3 N         139.6809  140.4732  158.4781 N.pl3   1  UNL1       -0.1989
      4 C         138.5308  141.4333  158.5504 C.2     1  UNL1        0.3548
      5 N         138.3299  142.2720  159.7777 N.2     1  UNL1       -0.0571
      6 C         139.2792  142.1506  160.9327 C.3     1  UNL1        0.2692
      7 H         139.8128  139.9227  157.6726 H       1  UNL1        0.2983
      8 C         139.0783  142.9893  162.1600 C.ar    1  UNL1        0.0371
      9 C         139.8018  144.2956  162.3023 C.ar    1  UNL1        0.0030
     10 C         139.6009  145.1343  163.5296 C.ar    1  UNL1        0.0295
     11 C         138.6765  144.6668  164.6145 C.ar    1  UNL1        0.1406
     12 F         138.4757  145.5055  165.8417 F       1  UNL1       -0.2042
     13 C         137.9531  143.3605  164.4722 C.ar    1  UNL1        0.0362
     14 C         138.1540  142.5218  163.2448 C.ar    1  UNL1        0.0372
     15 BR        137.4305  141.2155  163.1025 Br      1  UNL1       -0.0491
     16 C         137.5815  141.5547  157.3954 C.ar    1  UNL1        0.2279
     17 N         136.4336  140.6363  157.0972 N.ar    1  UNL1       -0.2186
     18 C         135.7561  141.1298  155.8533 C.ar    1  UNL1        0.1194
     19 C         136.4851  142.3534  155.3827 C.ar    1  UNL1        0.0982
     20 N         137.6133  142.6159  156.3357 N.ar    1  UNL1       -0.3023
     21 C         138.6000  143.7421  156.2451 C.3     1  UNL1        0.1322
     22 C         141.3787  141.0691  162.0154 C.2     1  UNL1        0.3447
     23 O         142.6977  141.7824  161.9803 O.2     1  UNL1       -0.2450
     24 O         141.0090  140.2343  163.2056 O.3     1  UNL1       -0.4455
     25 C         141.3697  142.0397  165.0387 C.3     1  UNL1        0.0513
     26 C         141.4938  140.6196  164.5717 C.3     1  UNL1        0.2089
     27 C         141.7805  139.3916  159.5609 C.3     1  UNL1        0.1405
     28 N         142.7520  139.4696  158.4207 N.3     1  UNL1       -0.2617
     29 C         142.6873  138.4634  157.3101 C.3     1  UNL1        0.1050
     30 C         143.6589  138.5413  156.1699 C.3     1  UNL1        0.1595
     31 O         144.6950  139.6255  156.1403 O.3     1  UNL1       -0.3508
     32 C         144.7597  140.6317  157.2508 C.3     1  UNL1        0.1595
     33 C         143.7882  140.5538  158.3910 C.3     1  UNL1        0.1050
@<TRIPOS>BOND
     1    25    26    1
     2    26    24    1
     3    24    22    1
     4    22    23    2
     5    22     1    1
     6     1     2    2
     7     2    27    1
     8    27    28    1
     9    28    29    1
    10    29    30    1
    11    30    31    1
    12    31    32    1
    13    32    33    1
    14     2     3    1
    15     3     4    1
    16     4    16    1
    17    16    17   ar
    18    17    18   ar
    19    18    19   ar
    20    19    20   ar
    21    20    21    1
    22     4     5    2
    23     5     6    1
    24     6     8    1
    25     8     9   ar
    26     9    10   ar
    27    10    11   ar
    28    11    12    1
    29    11    13   ar
    30    13    14   ar
    31    14    15    1
    32     6     1    1
    33    14     8   ar
    34    33    28    1
    35    20    16   ar
    36     3     7    1
@<TRIPOS>MOLECULE
*****
 33 36 0 0 0
SMALL
GASTEIGER

@<TRIPOS>ATOM
      1 C         139.5109  140.9683  160.7934 C.2     1  UNL1        0.1397
      2 C         139.5934  140.2030  159.5060 C.2     1  UNL1        0.1355
      3 N         139.0607  140.8055  158.2398 N.pl3   1  UNL1       -0.1989
      4 C         138.4456  142.1734  158.2611 C.2     1  UNL1        0.3548
      5 N         138.3631  142.9387  159.5485 N.2     1  UNL1       -0.0571
      6 C         138.8958  142.3361  160.8146 C.3     1  UNL1        0.2692
      7 H         139.1149  140.3032  157.3948 H       1  UNL1        0.2983
      8 C         138.8132  143.1015  162.1021 C.ar    1  UNL1        0.0371
      9 C         137.6720  142.8614  163.0455 C.ar    1  UNL1        0.0030
     10 C         137.5895  143.6267  164.3329 C.ar    1  UNL1        0.0295
     11 C         138.6482  144.6322  164.6770 C.ar    1  UNL1        0.1406
     12 F         138.5656  145.3975  165.9644 F       1  UNL1       -0.2042
     13 C         139.7894  144.8723  163.7336 C.ar    1  UNL1        0.0362
     14 C         139.8719  144.1069  162.4461 C.ar    1  UNL1        0.0372
     15 BR        141.0131  144.3470  161.5027 Br      1  UNL1       -0.0491
     16 C         137.9129  142.7760  156.9949 C.ar    1  UNL1        0.2279
     17 N         138.4170  144.0235  156.3320 N.ar    1  UNL1       -0.2186
     18 C         137.5982  144.2553  155.0967 C.ar    1  UNL1        0.1194
     19 C         136.5880  143.1511  154.9962 C.ar    1  UNL1        0.0982
     20 N         136.7825  142.2368  156.1693 N.ar    1  UNL1       -0.3023
     21 C         135.9864  141.0004  156.4650 C.3     1  UNL1        0.1322
     22 C         140.0436  140.3657  162.0596 C.2     1  UNL1        0.3447
     23 O         139.1983  139.4109  162.8493 O.2     1  UNL1       -0.2450
     24 O         141.4216  140.7180  162.5360 O.3     1  UNL1       -0.4455
     25 C         140.9310  141.5774  164.9382 C.3     1  UNL1        0.0513
     26 C         141.7304  140.7183  164.0038 C.3     1  UNL1        0.2089
     27 C         140.2086  138.8351  159.4847 C.3     1  UNL1        0.1405
     28 N         140.8428  138.3174  158.2278 N.3     1  UNL1       -0.2617
     29 C         142.3119  138.5102  157.9945 C.3     1  UNL1        0.1050
     30 C         142.9460  137.9925  156.7375 C.3     1  UNL1        0.1595
     31 O         142.1110  137.2820  155.7139 O.3     1  UNL1       -0.3508
     32 C         140.6419  137.0891  155.9472 C.3     1  UNL1        0.1595
     33 C         140.0077  137.6068  157.2041 C.3     1  UNL1        0.1050
@<TRIPOS>BOND
     1    25    26    1
     2    26    24    1
     3    24    22    1
     4    22    23    2
     5    22     1    1
     6     1     2    2
     7     2    27    1
     8    27    28    1
     9    28    29    1
    10    29    30    1
    11    30    31    1
    12    31    32    1
    13    32    33    1
    14     2     3    1
    15     3     4    1
    16     4    16    1
    17    16    17   ar
    18    17    18   ar
    19    18    19   ar
    20    19    20   ar
    21    20    21    1
    22     4     5    2
    23     5     6    1
    24     6     8    1
    25     8     9   ar
    26     9    10   ar
    27    10    11   ar
    28    11    12    1
    29    11    13   ar
    30    13    14   ar
    31    14    15    1
    32     6     1    1
    33    14     8   ar
    34    33    28    1
    35    20    16   ar
    36     3     7    1
