@<TRIPOS>MOLECULE
*****
 34 38 0 0 0
SMALL
GASTEIGER

@<TRIPOS>ATOM
      1 C         142.0968  138.1082  164.1853 C.2     1  UNL1        0.2301
      2 O         141.2497  136.9473  163.7553 O.2     1  UNL1       -0.2745
      3 N         142.4280  139.1975  163.2087 N.am    1  UNL1       -0.2764
      4 C         141.9121  139.1259  161.8020 C.3     1  UNL1        0.1107
      5 C         142.2433  140.2152  160.8254 C.3     1  UNL1        0.0939
      6 N         143.0904  141.3760  161.2555 N.3     1  UNL1       -0.2695
      7 C         143.6062  141.4476  162.6621 C.3     1  UNL1        0.0939
      8 C         143.2750  140.3583  163.6387 C.3     1  UNL1        0.1107
      9 C         142.6127  138.1797  165.5920 C.3     1  UNL1        0.1116
     10 C         142.4009  141.0521  168.3223 C.ar    1  UNL1        0.0859
     11 C         142.9668  140.0442  167.3664 C.ar    1  UNL1        0.0080
     12 C         142.0467  139.1876  166.5480 C.ar    1  UNL1       -0.0123
     13 C         140.5608  139.3389  166.6856 C.ar    1  UNL1       -0.0022
     14 C         139.9949  140.3468  167.6416 C.ar    1  UNL1        0.0196
     15 C         140.9149  141.2034  168.4600 C.ar    1  UNL1        0.0958
     16 N         140.3490  142.2113  169.4160 N.ar    1  UNL1       -0.1879
     17 C         140.5086  143.7000  169.3243 C.ar    1  UNL1        0.2258
     18 N         139.7824  144.3163  170.4831 N.ar    1  UNL1       -0.1045
     19 N         139.1741  143.2084  171.2910 N.ar    1  UNL1       -0.0222
     20 N         139.5243  141.9075  170.6315 N.ar    1  UNL1       -0.0385
     21 N         144.2410  142.7653  169.9591 N.1     1  UNL1       -0.1908
     22 C         143.3210  141.9087  169.1407 C.1     1  UNL1        0.1019
     23 C         143.4215  142.4653  160.2788 C.3     1  UNL1        0.0769
     24 C         142.6283  143.7384  160.2778 C.3     1  UNL1        0.0437
     25 C         141.6624  144.0212  161.3901 C.ar    1  UNL1       -0.0210
     26 C         142.1194  144.7670  162.6087 C.ar    1  UNL1       -0.0040
     27 C         141.1535  145.0497  163.7209 C.ar    1  UNL1        0.0059
     28 C         139.7308  144.5867  163.6146 C.ar    1  UNL1        0.0751
     29 C         139.2738  143.8409  162.3961 C.ar    1  UNL1        0.0272
     30 C         140.2396  143.5581  161.2838 C.ar    1  UNL1       -0.0047
     31 C         137.8211  143.5114  162.5719 C.3     1  UNL1        0.2356
     32 O         137.3801  144.0537  163.8992 O.3     1  UNL1       -0.4404
     33 C         138.5604  144.7182  164.5437 C.2     1  UNL1        0.3413
     34 O         138.5688  145.3954  165.8821 O.2     1  UNL1       -0.2449
@<TRIPOS>BOND
     1    21    22    3
     2    22    10    1
     3    10    11   ar
     4    11    12   ar
     5    12     9    1
     6     9     1    1
     7     1     2    2
     8     1     3   am
     9     3     4    1
    10     4     5    1
    11     5     6    1
    12     6    23    1
    13    23    24    1
    14    24    25    1
    15    25    26   ar
    16    26    27   ar
    17    27    28   ar
    18    28    29   ar
    19    29    30   ar
    20    29    31    1
    21    31    32    1
    22    32    33    1
    23    33    34    2
    24     6     7    1
    25     7     8    1
    26    12    13   ar
    27    13    14   ar
    28    14    15   ar
    29    15    16    1
    30    16    17   ar
    31    17    18   ar
    32    18    19   ar
    33    19    20   ar
    34    15    10   ar
    35    20    16   ar
    36     8     3    1
    37    30    25   ar
    38    33    28    1
@<TRIPOS>MOLECULE
*****
 34 38 0 0 0
SMALL
GASTEIGER

@<TRIPOS>ATOM
      1 C         143.0966  138.8338  164.1940 C.2     1  UNL1        0.2301
      2 O         144.5105  139.3209  164.0782 O.2     1  UNL1       -0.2745
      3 N         142.2085  138.8146  162.9852 N.am    1  UNL1       -0.2764
      4 C         142.7344  139.2826  161.6607 C.3     1  UNL1        0.1107
      5 C         141.8463  139.2634  160.4521 C.3     1  UNL1        0.0939
      6 N         140.4324  138.7763  160.5679 N.3     1  UNL1       -0.2695
      7 C         139.9065  138.3083  161.8924 C.3     1  UNL1        0.0939
      8 C         140.7945  138.3275  163.1011 C.3     1  UNL1        0.1107
      9 C         142.5707  138.3658  165.5185 C.3     1  UNL1        0.1116
     10 C         142.3522  141.1754  168.3128 C.ar    1  UNL1        0.0859
     11 C         142.9204  140.1857  167.3395 C.ar    1  UNL1        0.0080
     12 C         142.0025  139.3555  166.4919 C.ar    1  UNL1       -0.0123
     13 C         140.5163  139.5151  166.6178 C.ar    1  UNL1       -0.0022
     14 C         139.9481  140.5049  167.5913 C.ar    1  UNL1        0.0196
     15 C         140.8661  141.3350  168.4388 C.ar    1  UNL1        0.0958
     16 N         140.2979  142.3248  169.4122 N.ar    1  UNL1       -0.1879
     17 C         140.4432  143.8160  169.3395 C.ar    1  UNL1        0.2258
     18 N         139.7198  144.4100  170.5116 N.ar    1  UNL1       -0.1045
     19 N         139.1274  143.2859  171.3088 N.ar    1  UNL1       -0.0222
     20 N         139.4847  141.9972  170.6293 N.ar    1  UNL1       -0.0385
     21 N         144.1881  142.8357  170.0078 N.1     1  UNL1       -0.1908
     22 C         143.2702  142.0056  169.1604 C.1     1  UNL1        0.1019
     23 C         139.5443  138.7571  159.3591 C.3     1  UNL1        0.0769
     24 C         138.7420  139.9721  158.9986 C.3     1  UNL1        0.0437
     25 C         138.9403  141.2530  159.7536 C.ar    1  UNL1       -0.0210
     26 C         139.9016  142.2843  159.2416 C.ar    1  UNL1       -0.0040
     27 C         140.0998  143.5652  159.9966 C.ar    1  UNL1        0.0059
     28 C         139.3367  143.8147  161.2637 C.ar    1  UNL1        0.0751
     29 C         138.3754  142.7834  161.7757 C.ar    1  UNL1        0.0272
     30 C         138.1772  141.5026  161.0207 C.ar    1  UNL1       -0.0047
     31 C         137.7682  143.3051  163.0442 C.3     1  UNL1        0.2356
     32 O         138.3543  144.6588  163.3162 O.3     1  UNL1       -0.4404
     33 C         139.3237  144.9738  162.2158 C.2     1  UNL1        0.3413
     34 O         140.1372  146.2277  162.0895 O.2     1  UNL1       -0.2449
@<TRIPOS>BOND
     1    21    22    3
     2    22    10    1
     3    10    11   ar
     4    11    12   ar
     5    12     9    1
     6     9     1    1
     7     1     2    2
     8     1     3   am
     9     3     4    1
    10     4     5    1
    11     5     6    1
    12     6    23    1
    13    23    24    1
    14    24    25    1
    15    25    26   ar
    16    26    27   ar
    17    27    28   ar
    18    28    29   ar
    19    29    30   ar
    20    29    31    1
    21    31    32    1
    22    32    33    1
    23    33    34    2
    24     6     7    1
    25     7     8    1
    26    12    13   ar
    27    13    14   ar
    28    14    15   ar
    29    15    16    1
    30    16    17   ar
    31    17    18   ar
    32    18    19   ar
    33    19    20   ar
    34    15    10   ar
    35    20    16   ar
    36     8     3    1
    37    30    25   ar
    38    33    28    1
@<TRIPOS>MOLECULE
*****
 34 38 0 0 0
SMALL
GASTEIGER

@<TRIPOS>ATOM
      1 C         139.6724  137.7289  163.4404 C.2     1  UNL1        0.2301
      2 O         140.8979  136.8656  163.3853 O.2     1  UNL1       -0.2745
      3 N         139.3288  138.6182  162.2823 N.am    1  UNL1       -0.2764
      4 C         140.2106  138.6443  161.0692 C.3     1  UNL1        0.1107
      5 C         139.8670  139.5335  159.9112 C.3     1  UNL1        0.0939
      6 N         138.6416  140.3968  159.9663 N.3     1  UNL1       -0.2695
      7 C         137.7597  140.3708  161.1794 C.3     1  UNL1        0.0939
      8 C         138.1034  139.4815  162.3374 C.3     1  UNL1        0.1107
      9 C         138.7906  137.7029  164.6535 C.3     1  UNL1        0.1116
     10 C         140.6675  140.2864  167.0099 C.ar    1  UNL1        0.0859
     11 C         140.3621  139.3968  165.8415 C.ar    1  UNL1        0.0080
     12 C         139.0960  138.5925  165.8219 C.ar    1  UNL1       -0.0123
     13 C         138.1354  138.6780  166.9708 C.ar    1  UNL1       -0.0022
     14 C         138.4409  139.5677  168.1392 C.ar    1  UNL1        0.0196
     15 C         139.7069  140.3719  168.1587 C.ar    1  UNL1        0.0958
     16 N         140.0124  141.2617  169.3272 N.ar    1  UNL1       -0.1879
     17 C         140.2310  142.7447  169.2727 C.ar    1  UNL1        0.2258
     18 N         140.5066  143.2242  170.6670 N.ar    1  UNL1       -0.1045
     19 N         140.4584  142.0374  171.5832 N.ar    1  UNL1       -0.0222
     20 N         140.1530  140.8246  170.7552 N.ar    1  UNL1       -0.0385
     21 N         143.1996  141.8949  167.0489 N.1     1  UNL1       -0.1908
     22 C         141.9336  141.0907  167.0294 C.1     1  UNL1        0.1019
     23 C         138.2979  141.2862  158.8082 C.3     1  UNL1        0.0769
     24 C         138.6591  142.7415  158.8472 C.3     1  UNL1        0.0437
     25 C         139.7603  143.2171  159.7479 C.ar    1  UNL1       -0.0210
     26 C         141.1872  143.1438  159.2911 C.ar    1  UNL1       -0.0040
     27 C         142.2883  143.6195  160.1917 C.ar    1  UNL1        0.0059
     28 C         141.9626  144.1684  161.5491 C.ar    1  UNL1        0.0751
     29 C         140.5358  144.2417  162.0059 C.ar    1  UNL1        0.0272
     30 C         139.4346  143.7660  161.1053 C.ar    1  UNL1       -0.0047
     31 C         140.5207  144.8269  163.3870 C.3     1  UNL1        0.2356
     32 O         141.9383  145.1153  163.7837 O.3     1  UNL1       -0.4404
     33 C         142.8295  144.7083  162.6479 C.2     1  UNL1        0.3413
     34 O         144.3248  144.8214  162.6163 O.2     1  UNL1       -0.2449
@<TRIPOS>BOND
     1    21    22    3
     2    22    10    1
     3    10    11   ar
     4    11    12   ar
     5    12     9    1
     6     9     1    1
     7     1     2    2
     8     1     3   am
     9     3     4    1
    10     4     5    1
    11     5     6    1
    12     6    23    1
    13    23    24    1
    14    24    25    1
    15    25    26   ar
    16    26    27   ar
    17    27    28   ar
    18    28    29   ar
    19    29    30   ar
    20    29    31    1
    21    31    32    1
    22    32    33    1
    23    33    34    2
    24     6     7    1
    25     7     8    1
    26    12    13   ar
    27    13    14   ar
    28    14    15   ar
    29    15    16    1
    30    16    17   ar
    31    17    18   ar
    32    18    19   ar
    33    19    20   ar
    34    15    10   ar
    35    20    16   ar
    36     8     3    1
    37    30    25   ar
    38    33    28    1
@<TRIPOS>MOLECULE
*****
 34 38 0 0 0
SMALL
GASTEIGER

@<TRIPOS>ATOM
      1 C         138.0506  140.8655  163.5020 C.2     1  UNL1        0.2301
      2 O         136.8716  141.6402  162.9922 O.2     1  UNL1       -0.2745
      3 N         139.2229  140.6057  162.6028 N.am    1  UNL1       -0.2764
      4 C         139.2161  141.1206  161.1940 C.3     1  UNL1        0.1107
      5 C         140.3884  140.8607  160.2950 C.3     1  UNL1        0.0939
      6 N         141.5673  140.0860  160.8048 N.3     1  UNL1       -0.2695
      7 C         141.5740  139.5712  162.2136 C.3     1  UNL1        0.0939
      8 C         140.4018  139.8310  163.1126 C.3     1  UNL1        0.1107
      9 C         138.0573  140.3506  164.9108 C.3     1  UNL1        0.1116
     10 C         140.2928  140.7015  168.1710 C.ar    1  UNL1        0.0859
     11 C         139.3129  140.1529  167.1767 C.ar    1  UNL1        0.0080
     12 C         139.0373  140.8993  165.9051 C.ar    1  UNL1       -0.0123
     13 C         139.7416  142.1942  165.6278 C.ar    1  UNL1       -0.0022
     14 C         140.7216  142.7429  166.6222 C.ar    1  UNL1        0.0196
     15 C         140.9972  141.9965  167.8937 C.ar    1  UNL1        0.0958
     16 N         141.9772  142.5451  168.8881 N.ar    1  UNL1       -0.1879
     17 C         141.6370  143.3281  170.1215 C.ar    1  UNL1        0.2258
     18 N         142.9189  143.6740  170.8193 N.ar    1  UNL1       -0.1045
     19 N         144.0515  143.1047  170.0173 N.ar    1  UNL1       -0.0222
     20 N         143.4694  142.4070  168.8237 N.ar    1  UNL1       -0.0385
     21 N         140.8441  139.2089  170.7143 N.1     1  UNL1       -0.1908
     22 C         140.5685  139.9551  169.4427 C.1     1  UNL1        0.1019
     23 C         142.7396  139.8262  159.9057 C.3     1  UNL1        0.0769
     24 C         144.0345  140.5480  160.1341 C.3     1  UNL1        0.0437
     25 C         144.2160  141.3929  161.3602 C.ar    1  UNL1       -0.0210
     26 C         144.9845  140.8586  162.5323 C.ar    1  UNL1       -0.0040
     27 C         145.1660  141.7035  163.7583 C.ar    1  UNL1        0.0059
     28 C         144.5790  143.0828  163.8122 C.ar    1  UNL1        0.0751
     29 C         143.8105  143.6172  162.6401 C.ar    1  UNL1        0.0272
     30 C         143.6290  142.7723  161.4141 C.ar    1  UNL1       -0.0047
     31 C         143.3504  145.0037  162.9807 C.3     1  UNL1        0.2356
     32 O         143.8345  145.3262  164.3633 O.3     1  UNL1       -0.4404
     33 C         144.5939  144.1390  164.8772 C.2     1  UNL1        0.3413
     34 O         145.2524  144.0276  166.2203 O.2     1  UNL1       -0.2449
@<TRIPOS>BOND
     1    21    22    3
     2    22    10    1
     3    10    11   ar
     4    11    12   ar
     5    12     9    1
     6     9     1    1
     7     1     2    2
     8     1     3   am
     9     3     4    1
    10     4     5    1
    11     5     6    1
    12     6    23    1
    13    23    24    1
    14    24    25    1
    15    25    26   ar
    16    26    27   ar
    17    27    28   ar
    18    28    29   ar
    19    29    30   ar
    20    29    31    1
    21    31    32    1
    22    32    33    1
    23    33    34    2
    24     6     7    1
    25     7     8    1
    26    12    13   ar
    27    13    14   ar
    28    14    15   ar
    29    15    16    1
    30    16    17   ar
    31    17    18   ar
    32    18    19   ar
    33    19    20   ar
    34    15    10   ar
    35    20    16   ar
    36     8     3    1
    37    30    25   ar
    38    33    28    1
@<TRIPOS>MOLECULE
*****
 34 38 0 0 0
SMALL
GASTEIGER

@<TRIPOS>ATOM
      1 C         144.6440  140.1688  162.9558 C.2     1  UNL1        0.2301
      2 O         145.4949  141.3914  162.7798 O.2     1  UNL1       -0.2745
      3 N         143.7029  139.7467  161.8666 N.am    1  UNL1       -0.2764
      4 C         143.6129  140.5473  160.6013 C.3     1  UNL1        0.1107
      5 C         142.6719  140.1253  159.5122 C.3     1  UNL1        0.0939
      6 N         141.8209  138.9026  159.6882 N.3     1  UNL1       -0.2695
      7 C         141.9110  138.1020  160.9535 C.3     1  UNL1        0.0939
      8 C         142.8520  138.5241  162.0427 C.3     1  UNL1        0.1107
      9 C         144.7340  139.3682  164.2211 C.3     1  UNL1        0.1116
     10 C         141.8324  141.0131  166.3715 C.ar    1  UNL1        0.0859
     11 C         142.8101  140.7715  165.2600 C.ar    1  UNL1        0.0080
     12 C         143.7562  139.6097  165.3326 C.ar    1  UNL1       -0.0123
     13 C         143.7245  138.6896  166.5168 C.ar    1  UNL1       -0.0022
     14 C         142.7466  138.9312  167.6284 C.ar    1  UNL1        0.0196
     15 C         141.8006  140.0929  167.5557 C.ar    1  UNL1        0.0958
     16 N         140.8228  140.3346  168.6673 N.ar    1  UNL1       -0.1879
     17 C         141.0630  141.1762  169.8855 C.ar    1  UNL1        0.2258
     18 N         139.8218  141.1388  170.7269 N.ar    1  UNL1       -0.1045
     19 N         138.8144  140.2741  170.0287 N.ar    1  UNL1       -0.0222
     20 N         139.4331  139.7771  168.7558 N.ar    1  UNL1       -0.0385
     21 N         139.9402  143.3366  166.2263 N.1     1  UNL1       -0.1908
     22 C         140.8863  142.1749  166.2989 C.1     1  UNL1        0.1019
     23 C         140.8799  138.4806  158.5990 C.3     1  UNL1        0.0769
     24 C         139.5085  139.0828  158.5176 C.3     1  UNL1        0.0437
     25 C         139.1125  140.1771  159.4641 C.ar    1  UNL1       -0.0210
     26 C         139.2977  141.6126  159.0705 C.ar    1  UNL1       -0.0040
     27 C         138.9017  142.7068  160.0170 C.ar    1  UNL1        0.0059
     28 C         138.3204  142.3654  161.3570 C.ar    1  UNL1        0.0751
     29 C         138.1352  140.9299  161.7506 C.ar    1  UNL1        0.0272
     30 C         138.5312  139.8357  160.8041 C.ar    1  UNL1       -0.0047
     31 C         137.5413  140.8997  163.1277 C.3     1  UNL1        0.2356
     32 O         137.3595  142.3166  163.5852 O.3     1  UNL1       -0.4404
     33 C         137.8410  143.2225  162.4909 C.2     1  UNL1        0.3413
     34 O         137.8429  144.7221  162.5246 O.2     1  UNL1       -0.2449
@<TRIPOS>BOND
     1    21    22    3
     2    22    10    1
     3    10    11   ar
     4    11    12   ar
     5    12     9    1
     6     9     1    1
     7     1     2    2
     8     1     3   am
     9     3     4    1
    10     4     5    1
    11     5     6    1
    12     6    23    1
    13    23    24    1
    14    24    25    1
    15    25    26   ar
    16    26    27   ar
    17    27    28   ar
    18    28    29   ar
    19    29    30   ar
    20    29    31    1
    21    31    32    1
    22    32    33    1
    23    33    34    2
    24     6     7    1
    25     7     8    1
    26    12    13   ar
    27    13    14   ar
    28    14    15   ar
    29    15    16    1
    30    16    17   ar
    31    17    18   ar
    32    18    19   ar
    33    19    20   ar
    34    15    10   ar
    35    20    16   ar
    36     8     3    1
    37    30    25   ar
    38    33    28    1
@<TRIPOS>MOLECULE
*****
 34 38 0 0 0
SMALL
GASTEIGER

@<TRIPOS>ATOM
      1 C         137.8392  140.5619  163.4111 C.2     1  UNL1        0.2301
      2 O         136.9356  141.7465  163.2377 O.2     1  UNL1       -0.2745
      3 N         138.5793  140.0042  162.2315 N.am    1  UNL1       -0.2764
      4 C         138.4157  140.6311  160.8787 C.3     1  UNL1        0.1107
      5 C         139.1557  140.0733  159.6992 C.3     1  UNL1        0.0939
      6 N         140.0594  138.8887  159.8726 N.3     1  UNL1       -0.2695
      7 C         140.2230  138.2618  161.2254 C.3     1  UNL1        0.0939
      8 C         139.4830  138.8196  162.4049 C.3     1  UNL1        0.1107
      9 C         138.0028  139.9350  164.7639 C.3     1  UNL1        0.1116
     10 C         139.8825  140.6634  168.1824 C.ar    1  UNL1        0.0859
     11 C         138.9451  140.0546  167.1822 C.ar    1  UNL1        0.0080
     12 C         138.9403  140.5438  165.7642 C.ar    1  UNL1       -0.0123
     13 C         139.8729  141.6419  165.3465 C.ar    1  UNL1       -0.0022
     14 C         140.8103  142.2507  166.3468 C.ar    1  UNL1        0.0196
     15 C         140.8151  141.7615  167.7648 C.ar    1  UNL1        0.0958
     16 N         141.7526  142.3703  168.7651 N.ar    1  UNL1       -0.1879
     17 C         143.2309  142.1301  168.8480 C.ar    1  UNL1        0.2258
     18 N         143.7683  142.9375  169.9923 N.ar    1  UNL1       -0.1045
     19 N         142.6220  143.6767  170.6166 N.ar    1  UNL1       -0.0222
     20 N         141.3763  143.3262  169.8581 N.ar    1  UNL1       -0.0385
     21 N         139.8921  139.6849  171.0184 N.1     1  UNL1       -0.1908
     22 C         139.8873  140.1742  169.6005 C.1     1  UNL1        0.1019
     23 C         140.7995  138.3310  158.6930 C.3     1  UNL1        0.0769
     24 C         142.2799  138.5385  158.5699 C.3     1  UNL1        0.0437
     25 C         143.0231  139.2891  159.6350 C.ar    1  UNL1       -0.0210
     26 C         143.7286  138.5404  160.7266 C.ar    1  UNL1       -0.0040
     27 C         144.4718  139.2910  161.7916 C.ar    1  UNL1        0.0059
     28 C         144.5095  140.7903  161.7650 C.ar    1  UNL1        0.0751
     29 C         143.8041  141.5390  160.6733 C.ar    1  UNL1        0.0272
     30 C         143.0609  140.7884  159.6083 C.ar    1  UNL1       -0.0047
     31 C         144.0149  143.0057  160.9061 C.3     1  UNL1        0.2356
     32 O         144.8507  143.1635  162.1417 O.3     1  UNL1       -0.4404
     33 C         145.1564  141.7943  162.6725 C.2     1  UNL1        0.3413
     34 O         145.9666  141.4836  163.8960 O.2     1  UNL1       -0.2449
@<TRIPOS>BOND
     1    21    22    3
     2    22    10    1
     3    10    11   ar
     4    11    12   ar
     5    12     9    1
     6     9     1    1
     7     1     2    2
     8     1     3   am
     9     3     4    1
    10     4     5    1
    11     5     6    1
    12     6    23    1
    13    23    24    1
    14    24    25    1
    15    25    26   ar
    16    26    27   ar
    17    27    28   ar
    18    28    29   ar
    19    29    30   ar
    20    29    31    1
    21    31    32    1
    22    32    33    1
    23    33    34    2
    24     6     7    1
    25     7     8    1
    26    12    13   ar
    27    13    14   ar
    28    14    15   ar
    29    15    16    1
    30    16    17   ar
    31    17    18   ar
    32    18    19   ar
    33    19    20   ar
    34    15    10   ar
    35    20    16   ar
    36     8     3    1
    37    30    25   ar
    38    33    28    1
@<TRIPOS>MOLECULE
*****
 34 38 0 0 0
SMALL
GASTEIGER

@<TRIPOS>ATOM
      1 C         138.3400  139.1732  163.4546 C.2     1  UNL1        0.2301
      2 O         138.1501  138.2335  162.3010 O.2     1  UNL1       -0.2745
      3 N         138.4141  140.6518  163.2132 N.am    1  UNL1       -0.2764
      4 C         138.2983  141.1907  161.8182 C.3     1  UNL1        0.1107
      5 C         138.3723  142.6693  161.5769 C.3     1  UNL1        0.0939
      6 N         138.5622  143.6090  162.7306 N.3     1  UNL1       -0.2695
      7 C         138.6780  143.0701  164.1256 C.3     1  UNL1        0.0939
      8 C         138.6039  141.5915  164.3669 C.3     1  UNL1        0.1107
      9 C         138.4558  138.6343  164.8497 C.3     1  UNL1        0.1116
     10 C         140.0419  140.3885  168.0366 C.ar    1  UNL1        0.0859
     11 C         139.0275  139.8143  167.0926 C.ar    1  UNL1        0.0080
     12 C         139.4702  139.2085  165.7937 C.ar    1  UNL1       -0.0123
     13 C         140.9272  139.1771  165.4388 C.ar    1  UNL1       -0.0022
     14 C         141.9416  139.7514  166.3829 C.ar    1  UNL1        0.0196
     15 C         141.4989  140.3571  167.6818 C.ar    1  UNL1        0.0958
     16 N         142.5133  140.9314  168.6259 N.ar    1  UNL1       -0.1879
     17 C         143.1216  142.2999  168.5408 C.ar    1  UNL1        0.2258
     18 N         144.0817  142.4524  169.6830 N.ar    1  UNL1       -0.1045
     19 N         144.0669  141.1780  170.4742 N.ar    1  UNL1       -0.0222
     20 N         143.0976  140.2380  169.8208 N.ar    1  UNL1       -0.0385
     21 N         139.1565  141.5999  170.6345 N.1     1  UNL1       -0.1908
     22 C         139.5992  140.9943  169.3356 C.1     1  UNL1        0.1019
     23 C         138.6363  145.0876  162.4892 C.3     1  UNL1        0.0769
     24 C         139.9705  145.7598  162.3553 C.3     1  UNL1        0.0437
     25 C         141.2312  144.9596  162.4985 C.ar    1  UNL1       -0.0210
     26 C         141.8110  144.2541  161.3085 C.ar    1  UNL1       -0.0040
     27 C         143.0717  143.4540  161.4518 C.ar    1  UNL1        0.0059
     28 C         143.7524  143.3593  162.7851 C.ar    1  UNL1        0.0751
     29 C         143.1726  144.0647  163.9750 C.ar    1  UNL1        0.0272
     30 C         141.9120  144.8649  163.8318 C.ar    1  UNL1       -0.0047
     31 C         144.0595  143.7914  165.1535 C.3     1  UNL1        0.2356
     32 O         145.1874  142.9170  164.6918 O.3     1  UNL1       -0.4404
     33 C         144.9977  142.6499  163.2280 C.2     1  UNL1        0.3413
     34 O         145.8955  141.8193  162.3597 O.2     1  UNL1       -0.2449
@<TRIPOS>BOND
     1    21    22    3
     2    22    10    1
     3    10    11   ar
     4    11    12   ar
     5    12     9    1
     6     9     1    1
     7     1     2    2
     8     1     3   am
     9     3     4    1
    10     4     5    1
    11     5     6    1
    12     6    23    1
    13    23    24    1
    14    24    25    1
    15    25    26   ar
    16    26    27   ar
    17    27    28   ar
    18    28    29   ar
    19    29    30   ar
    20    29    31    1
    21    31    32    1
    22    32    33    1
    23    33    34    2
    24     6     7    1
    25     7     8    1
    26    12    13   ar
    27    13    14   ar
    28    14    15   ar
    29    15    16    1
    30    16    17   ar
    31    17    18   ar
    32    18    19   ar
    33    19    20   ar
    34    15    10   ar
    35    20    16   ar
    36     8     3    1
    37    30    25   ar
    38    33    28    1
@<TRIPOS>MOLECULE
*****
 34 38 0 0 0
SMALL
GASTEIGER

@<TRIPOS>ATOM
      1 C         138.5424  139.1156  164.1700 C.2     1  UNL1        0.2301
      2 O         139.0215  137.6955  164.1091 O.2     1  UNL1       -0.2745
      3 N         138.5316  139.9573  162.9284 N.am    1  UNL1       -0.2764
      4 C         138.9999  139.3789  161.6260 C.3     1  UNL1        0.1107
      5 C         138.9891  140.2207  160.3846 C.3     1  UNL1        0.0939
      6 N         138.5101  141.6408  160.4454 N.3     1  UNL1       -0.2695
      7 C         138.0418  142.2192  161.7477 C.3     1  UNL1        0.0939
      8 C         138.0526  141.3775  162.9892 C.3     1  UNL1        0.1107
      9 C         138.0742  139.6940  165.4723 C.3     1  UNL1        0.1116
     10 C         140.0986  140.6622  168.7455 C.ar    1  UNL1        0.0859
     11 C         139.1217  139.9829  167.8322 C.ar    1  UNL1        0.0080
     12 C         139.0511  140.3733  166.3856 C.ar    1  UNL1       -0.0123
     13 C         139.9573  141.4430  165.8524 C.ar    1  UNL1       -0.0022
     14 C         140.9343  142.1223  166.7658 C.ar    1  UNL1        0.0196
     15 C         141.0049  141.7319  168.2123 C.ar    1  UNL1        0.0958
     16 N         141.9818  142.4112  169.1257 N.ar    1  UNL1       -0.1879
     17 C         143.4676  142.2055  169.1374 C.ar    1  UNL1        0.2258
     18 N         144.0486  143.0826  170.2066 N.ar    1  UNL1       -0.1045
     19 N         142.9218  143.8303  170.8558 N.ar    1  UNL1       -0.0222
     20 N         141.6445  143.4154  170.1877 N.ar    1  UNL1       -0.0385
     21 N         140.2399  139.8814  171.6387 N.1     1  UNL1       -0.1908
     22 C         140.1693  140.2717  170.1922 C.1     1  UNL1        0.1019
     23 C         138.4993  142.4825  159.2038 C.3     1  UNL1        0.0769
     24 C         139.7445  143.1991  158.7727 C.3     1  UNL1        0.0437
     25 C         140.9992  143.0779  159.5858 C.ar    1  UNL1       -0.0210
     26 C         142.0070  142.0170  159.2562 C.ar    1  UNL1       -0.0040
     27 C         143.2616  141.8958  160.0693 C.ar    1  UNL1        0.0059
     28 C         143.5085  142.8357  161.2120 C.ar    1  UNL1        0.0751
     29 C         142.5008  143.8967  161.5416 C.ar    1  UNL1        0.0272
     30 C         141.2461  144.0178  160.7285 C.ar    1  UNL1       -0.0047
     31 C         143.0139  144.6741  162.7173 C.3     1  UNL1        0.2356
     32 O         144.3388  144.0935  163.1144 O.3     1  UNL1       -0.4404
     33 C         144.6445  142.9573  162.1840 C.2     1  UNL1        0.3413
     34 O         145.8709  142.0943  162.2195 O.2     1  UNL1       -0.2449
@<TRIPOS>BOND
     1    21    22    3
     2    22    10    1
     3    10    11   ar
     4    11    12   ar
     5    12     9    1
     6     9     1    1
     7     1     2    2
     8     1     3   am
     9     3     4    1
    10     4     5    1
    11     5     6    1
    12     6    23    1
    13    23    24    1
    14    24    25    1
    15    25    26   ar
    16    26    27   ar
    17    27    28   ar
    18    28    29   ar
    19    29    30   ar
    20    29    31    1
    21    31    32    1
    22    32    33    1
    23    33    34    2
    24     6     7    1
    25     7     8    1
    26    12    13   ar
    27    13    14   ar
    28    14    15   ar
    29    15    16    1
    30    16    17   ar
    31    17    18   ar
    32    18    19   ar
    33    19    20   ar
    34    15    10   ar
    35    20    16   ar
    36     8     3    1
    37    30    25   ar
    38    33    28    1
@<TRIPOS>MOLECULE
*****
 34 38 0 0 0
SMALL
GASTEIGER

@<TRIPOS>ATOM
      1 C         139.4088  138.5732  163.2456 C.2     1  UNL1        0.2301
      2 O         140.1140  137.3165  162.8290 O.2     1  UNL1       -0.2745
      3 N         139.5524  139.8209  162.4254 N.am    1  UNL1       -0.2764
      4 C         140.4012  139.8119  161.1887 C.3     1  UNL1        0.1107
      5 C         140.5447  141.0596  160.3686 C.3     1  UNL1        0.0939
      6 N         139.8395  142.3162  160.7851 N.3     1  UNL1       -0.2695
      7 C         138.9907  142.3252  162.0218 C.3     1  UNL1        0.0939
      8 C         138.8471  141.0775  162.8419 C.3     1  UNL1        0.1107
      9 C         138.5600  138.5821  164.4823 C.3     1  UNL1        0.1116
     10 C         138.8418  139.6183  168.3028 C.ar    1  UNL1        0.0859
     11 C         138.2955  139.0601  167.0223 C.ar    1  UNL1        0.0080
     12 C         139.1063  139.1404  165.7628 C.ar    1  UNL1       -0.0123
     13 C         140.4635  139.7788  165.7840 C.ar    1  UNL1       -0.0022
     14 C         141.0098  140.3371  167.0646 C.ar    1  UNL1        0.0196
     15 C         140.1989  140.2568  168.3240 C.ar    1  UNL1        0.0958
     16 N         140.7453  140.8150  169.6047 N.ar    1  UNL1       -0.1879
     17 C         140.4618  142.1775  170.1644 C.ar    1  UNL1        0.2258
     18 N         141.2122  142.3134  171.4560 N.ar    1  UNL1       -0.1045
     19 N         141.9596  141.0348  171.6946 N.ar    1  UNL1       -0.0222
     20 N         141.6709  140.1088  170.5503 N.ar    1  UNL1       -0.0385
     21 N         137.2201  139.4578  170.8217 N.1     1  UNL1       -0.1908
     22 C         138.0309  139.5381  169.5623 C.1     1  UNL1        0.1019
     23 C         139.9831  143.5639  159.9649 C.3     1  UNL1        0.0769
     24 C         141.0155  144.5882  160.3321 C.3     1  UNL1        0.0437
     25 C         141.9244  144.3511  161.5017 C.ar    1  UNL1       -0.0210
     26 C         141.7213  145.1153  162.7763 C.ar    1  UNL1       -0.0040
     27 C         142.6301  144.8782  163.9458 C.ar    1  UNL1        0.0059
     28 C         143.7420  143.8769  163.8407 C.ar    1  UNL1        0.0751
     29 C         143.9451  143.1127  162.5661 C.ar    1  UNL1        0.0272
     30 C         143.0363  143.3498  161.3966 C.ar    1  UNL1       -0.0047
     31 C         145.1174  142.1966  162.7566 C.3     1  UNL1        0.2356
     32 O         145.6389  142.3946  164.1491 O.3     1  UNL1       -0.4404
     33 C         144.7889  143.4331  164.8191 C.2     1  UNL1        0.3413
     34 O         144.9563  143.9390  166.2212 O.2     1  UNL1       -0.2449
@<TRIPOS>BOND
     1    21    22    3
     2    22    10    1
     3    10    11   ar
     4    11    12   ar
     5    12     9    1
     6     9     1    1
     7     1     2    2
     8     1     3   am
     9     3     4    1
    10     4     5    1
    11     5     6    1
    12     6    23    1
    13    23    24    1
    14    24    25    1
    15    25    26   ar
    16    26    27   ar
    17    27    28   ar
    18    28    29   ar
    19    29    30   ar
    20    29    31    1
    21    31    32    1
    22    32    33    1
    23    33    34    2
    24     6     7    1
    25     7     8    1
    26    12    13   ar
    27    13    14   ar
    28    14    15   ar
    29    15    16    1
    30    16    17   ar
    31    17    18   ar
    32    18    19   ar
    33    19    20   ar
    34    15    10   ar
    35    20    16   ar
    36     8     3    1
    37    30    25   ar
    38    33    28    1
