@<TRIPOS>MOLECULE
*****
 29 32 0 0 0
SMALL
GASTEIGER

@<TRIPOS>ATOM
      1 C         143.3324  140.1160  162.6714 C.ar    1  UNL1        0.1364
      2 C         144.4738  139.4581  163.3886 C.ar    1  UNL1        0.0366
      3 C         145.5418  140.2965  164.0262 C.ar    1  UNL1        0.0031
      4 C         145.4684  141.7926  163.9466 C.ar    1  UNL1       -0.0001
      5 C         144.3269  142.4503  163.2294 C.ar    1  UNL1        0.0001
      6 C         143.2590  141.6121  162.5918 C.ar    1  UNL1        0.0279
      7 O         142.2643  139.2776  162.0338 O.3     1  UNL1       -0.4692
      8 C         141.5384  138.2446  162.8437 C.3     1  UNL1        0.2513
      9 C         139.9248  139.7327  166.0448 C.ar    1  UNL1        0.1105
     10 N         141.0873  139.5930  165.1072 N.ar    1  UNL1       -0.2390
     11 C         140.6815  138.6650  164.0008 C.ar    1  UNL1        0.1097
     12 C         139.2681  138.2311  164.2546 C.ar    1  UNL1        0.0553
     13 S         138.8005  138.8911  165.5180 S.2     1  UNL1       -0.0662
     14 CL        139.7948  143.0720  171.0280 Cl      1  UNL1       -0.0822
     15 C         139.8273  142.2372  169.7822 C.ar    1  UNL1        0.0577
     16 C         140.3841  142.8076  168.5115 C.ar    1  UNL1        0.0115
     17 C         140.4166  141.9727  167.2657 C.ar    1  UNL1        0.0029
     18 C         139.8923  140.5675  167.2906 C.ar    1  UNL1        0.0239
     19 C         139.3356  139.9972  168.5613 C.ar    1  UNL1        0.0029
     20 C         139.3030  140.8320  169.8071 C.ar    1  UNL1        0.0115
     21 C         142.1175  142.2698  161.8746 C.3     1  UNL1        0.1022
     22 N         140.8946  142.6883  162.6359 N.3     1  UNL1       -0.2689
     23 C         141.1138  143.9419  163.4299 C.3     1  UNL1        0.0724
     24 C         140.2688  144.7815  164.3415 C.3     1  UNL1        0.0173
     25 C         138.8544  144.7152  164.8366 C.3     1  UNL1        0.0014
     26 C         137.6993  143.7819  164.6253 C.3     1  UNL1        0.0001
     27 C         137.4801  142.5283  163.8313 C.3     1  UNL1        0.0014
     28 C         138.3252  141.6888  162.9197 C.3     1  UNL1        0.0173
     29 C         139.7395  141.7551  162.4246 C.3     1  UNL1        0.0724
@<TRIPOS>BOND
     1    14    15    1
     2    15    16   ar
     3    16    17   ar
     4    17    18   ar
     5    18     9    1
     6     9    10   ar
     7    10    11   ar
     8    11     8    1
     9     8     7    1
    10     7     1    1
    11     1     2   ar
    12     2     3   ar
    13     3     4   ar
    14     4     5   ar
    15     5     6   ar
    16     6    21    1
    17    21    22    1
    18    22    23    1
    19    23    24    1
    20    24    25    1
    21    25    26    1
    22    26    27    1
    23    27    28    1
    24    28    29    1
    25    11    12   ar
    26    12    13   ar
    27    18    19   ar
    28    19    20   ar
    29    20    15   ar
    30    13     9   ar
    31     6     1   ar
    32    29    22    1
@<TRIPOS>MOLECULE
*****
 29 32 0 0 0
SMALL
GASTEIGER

@<TRIPOS>ATOM
      1 C         142.9509  142.9619  162.2188 C.ar    1  UNL1        0.1364
      2 C         144.0529  143.8882  162.6401 C.ar    1  UNL1        0.0366
      3 C         143.7339  145.1228  163.4300 C.ar    1  UNL1        0.0031
      4 C         142.3129  145.4311  163.7986 C.ar    1  UNL1       -0.0001
      5 C         141.2110  144.5047  163.3773 C.ar    1  UNL1        0.0001
      6 C         141.5299  143.2702  162.5874 C.ar    1  UNL1        0.0279
      7 O         143.2698  141.7272  161.4289 O.3     1  UNL1       -0.4692
      8 C         144.0259  140.6013  162.0698 C.3     1  UNL1        0.2513
      9 C         142.9762  139.9804  165.7546 C.ar    1  UNL1        0.1105
     10 N         143.3931  140.9045  164.6491 N.ar    1  UNL1       -0.2390
     11 C         143.6030  140.0824  163.4121 C.ar    1  UNL1        0.1097
     12 C         143.3158  138.6502  163.7532 C.ar    1  UNL1        0.0553
     13 S         142.9284  138.5872  165.2010 S.2     1  UNL1       -0.0662
     14 CL        141.7200  141.5764  171.4004 Cl      1  UNL1       -0.0822
     15 C         142.0341  141.1775  169.9890 C.ar    1  UNL1        0.0577
     16 C         142.2135  139.7294  169.6412 C.ar    1  UNL1        0.0115
     17 C         142.5276  139.3304  168.2297 C.ar    1  UNL1        0.0029
     18 C         142.6621  140.3795  167.1660 C.ar    1  UNL1        0.0239
     19 C         142.4827  141.8275  167.5139 C.ar    1  UNL1        0.0029
     20 C         142.1686  142.2265  168.9253 C.ar    1  UNL1        0.0115
     21 C         140.4280  142.3438  162.1661 C.3     1  UNL1        0.1022
     22 N         140.0571  141.1765  163.0321 N.3     1  UNL1       -0.2689
     23 C         140.0885  139.8755  162.2863 C.3     1  UNL1        0.0724
     24 C         139.8177  138.4433  162.6402 C.3     1  UNL1        0.0173
     25 C         139.4033  137.7188  163.8865 C.3     1  UNL1        0.0014
     26 C         139.0880  138.1265  165.2952 C.3     1  UNL1        0.0001
     27 C         139.0566  139.4275  166.0410 C.3     1  UNL1        0.0014
     28 C         139.3275  140.8597  165.6871 C.3     1  UNL1        0.0173
     29 C         139.7419  141.5842  164.4408 C.3     1  UNL1        0.0724
@<TRIPOS>BOND
     1    14    15    1
     2    15    16   ar
     3    16    17   ar
     4    17    18   ar
     5    18     9    1
     6     9    10   ar
     7    10    11   ar
     8    11     8    1
     9     8     7    1
    10     7     1    1
    11     1     2   ar
    12     2     3   ar
    13     3     4   ar
    14     4     5   ar
    15     5     6   ar
    16     6    21    1
    17    21    22    1
    18    22    23    1
    19    23    24    1
    20    24    25    1
    21    25    26    1
    22    26    27    1
    23    27    28    1
    24    28    29    1
    25    11    12   ar
    26    12    13   ar
    27    18    19   ar
    28    19    20   ar
    29    20    15   ar
    30    13     9   ar
    31     6     1   ar
    32    29    22    1
@<TRIPOS>MOLECULE
*****
 29 32 0 0 0
SMALL
GASTEIGER

@<TRIPOS>ATOM
      1 C         138.4862  142.7593  162.8174 C.ar    1  UNL1        0.1364
      2 C         137.4291  143.3080  163.7294 C.ar    1  UNL1        0.0366
      3 C         137.7729  144.3886  164.7112 C.ar    1  UNL1        0.0031
      4 C         139.1737  144.9206  164.7811 C.ar    1  UNL1       -0.0001
      5 C         140.2307  144.3719  163.8692 C.ar    1  UNL1        0.0001
      6 C         139.8870  143.2913  162.8874 C.ar    1  UNL1        0.0279
      7 O         138.1425  141.6786  161.8356 O.3     1  UNL1       -0.4692
      8 C         137.7224  140.3250  162.3267 C.3     1  UNL1        0.2513
      9 C         139.7599  139.2728  165.4583 C.ar    1  UNL1        0.1105
     10 N         139.0712  140.3202  164.6345 N.ar    1  UNL1       -0.2390
     11 C         138.4953  139.6514  163.4217 C.ar    1  UNL1        0.1097
     12 C         138.8280  138.1906  163.4959 C.ar    1  UNL1        0.0553
     13 S         139.6096  137.9567  164.7547 S.2     1  UNL1       -0.0662
     14 CL        142.6145  140.1872  170.6559 Cl      1  UNL1       -0.0822
     15 C         141.9009  139.9586  169.3565 C.ar    1  UNL1        0.0577
     16 C         140.4149  140.1462  169.2739 C.ar    1  UNL1        0.0115
     17 C         139.7012  139.9176  167.9744 C.ar    1  UNL1        0.0029
     18 C         140.4736  139.5014  166.7577 C.ar    1  UNL1        0.0239
     19 C         141.9595  139.3139  166.8404 C.ar    1  UNL1        0.0029
     20 C         142.6731  139.5425  168.1398 C.ar    1  UNL1        0.0115
     21 C         140.9440  142.7426  161.9754 C.3     1  UNL1        0.1022
     22 N         142.1589  142.0767  162.5505 N.3     1  UNL1       -0.2689
     23 C         141.9733  140.5989  162.7288 C.3     1  UNL1        0.0724
     24 C         142.8262  139.4772  163.2427 C.3     1  UNL1        0.0173
     25 C         144.2180  139.3686  163.7914 C.3     1  UNL1        0.0014
     26 C         145.3334  140.3366  164.0533 C.3     1  UNL1        0.0001
     27 C         145.5190  141.8144  163.8750 C.3     1  UNL1        0.0014
     28 C         144.6661  142.9361  163.3611 C.3     1  UNL1        0.0173
     29 C         143.2743  143.0448  162.8124 C.3     1  UNL1        0.0724
@<TRIPOS>BOND
     1    14    15    1
     2    15    16   ar
     3    16    17   ar
     4    17    18   ar
     5    18     9    1
     6     9    10   ar
     7    10    11   ar
     8    11     8    1
     9     8     7    1
    10     7     1    1
    11     1     2   ar
    12     2     3   ar
    13     3     4   ar
    14     4     5   ar
    15     5     6   ar
    16     6    21    1
    17    21    22    1
    18    22    23    1
    19    23    24    1
    20    24    25    1
    21    25    26    1
    22    26    27    1
    23    27    28    1
    24    28    29    1
    25    11    12   ar
    26    12    13   ar
    27    18    19   ar
    28    19    20   ar
    29    20    15   ar
    30    13     9   ar
    31     6     1   ar
    32    29    22    1
@<TRIPOS>MOLECULE
*****
 29 32 0 0 0
SMALL
GASTEIGER

@<TRIPOS>ATOM
      1 C         144.1889  142.7046  162.0498 C.ar    1  UNL1        0.1364
      2 C         145.2773  141.7627  162.4718 C.ar    1  UNL1        0.0366
      3 C         145.7880  141.7904  163.8819 C.ar    1  UNL1        0.0031
      4 C         145.2103  142.7599  164.8700 C.ar    1  UNL1       -0.0001
      5 C         144.1219  143.7018  164.4479 C.ar    1  UNL1        0.0001
      6 C         143.6112  143.6742  163.0379 C.ar    1  UNL1        0.0279
      7 O         143.6781  142.6770  160.6397 O.3     1  UNL1       -0.4692
      8 C         143.3535  141.3669  159.9852 C.3     1  UNL1        0.2513
      9 C         140.8907  139.4064  162.2560 C.ar    1  UNL1        0.1105
     10 N         141.7386  140.6119  161.9769 N.ar    1  UNL1       -0.2390
     11 C         142.4130  140.4078  160.6528 C.ar    1  UNL1        0.1097
     12 C         141.9820  139.0761  160.1134 C.ar    1  UNL1        0.0553
     13 S         141.0411  138.4572  161.1043 S.2     1  UNL1       -0.0662
     14 CL        137.4937  138.5341  167.1241 Cl      1  UNL1       -0.0822
     15 C         138.3429  138.7521  165.9071 C.ar    1  UNL1        0.0577
     16 C         138.6324  140.1460  165.4346 C.ar    1  UNL1        0.0115
     17 C         139.4817  140.3641  164.2175 C.ar    1  UNL1        0.0029
     18 C         140.0414  139.1883  163.4730 C.ar    1  UNL1        0.0239
     19 C         139.7518  137.7945  163.9456 C.ar    1  UNL1        0.0029
     20 C         138.9026  137.5763  165.1626 C.ar    1  UNL1        0.0115
     21 C         142.5227  144.6161  162.6158 C.3     1  UNL1        0.1022
     22 N         141.0856  144.2531  162.8463 N.3     1  UNL1       -0.2689
     23 C         140.4671  143.5760  161.6594 C.3     1  UNL1        0.0724
     24 C         139.1110  143.0177  161.3442 C.3     1  UNL1        0.0173
     25 C         137.8118  142.9054  162.0853 C.3     1  UNL1        0.0014
     26 C         137.3304  143.3048  163.4486 C.3     1  UNL1        0.0001
     27 C         137.9489  143.9819  164.6356 C.3     1  UNL1        0.0014
     28 C         139.3050  144.5402  164.9508 C.3     1  UNL1        0.0173
     29 C         140.6042  144.6525  164.2097 C.3     1  UNL1        0.0724
@<TRIPOS>BOND
     1    14    15    1
     2    15    16   ar
     3    16    17   ar
     4    17    18   ar
     5    18     9    1
     6     9    10   ar
     7    10    11   ar
     8    11     8    1
     9     8     7    1
    10     7     1    1
    11     1     2   ar
    12     2     3   ar
    13     3     4   ar
    14     4     5   ar
    15     5     6   ar
    16     6    21    1
    17    21    22    1
    18    22    23    1
    19    23    24    1
    20    24    25    1
    21    25    26    1
    22    26    27    1
    23    27    28    1
    24    28    29    1
    25    11    12   ar
    26    12    13   ar
    27    18    19   ar
    28    19    20   ar
    29    20    15   ar
    30    13     9   ar
    31     6     1   ar
    32    29    22    1
@<TRIPOS>MOLECULE
*****
 29 32 0 0 0
SMALL
GASTEIGER

@<TRIPOS>ATOM
      1 C         142.3092  144.3185  161.2359 C.ar    1  UNL1        0.1364
      2 C         141.1534  144.7774  160.3972 C.ar    1  UNL1        0.0366
      3 C         140.0517  145.5854  161.0165 C.ar    1  UNL1        0.0031
      4 C         140.1058  145.9344  162.4743 C.ar    1  UNL1       -0.0001
      5 C         141.2617  145.4754  163.3129 C.ar    1  UNL1        0.0001
      6 C         142.3633  144.6675  162.6938 C.ar    1  UNL1        0.0279
      7 O         143.4110  143.5105  160.6167 O.3     1  UNL1       -0.4692
      8 C         143.1580  142.0916  160.2011 C.3     1  UNL1        0.2513
      9 C         140.3215  140.2658  162.1211 C.ar    1  UNL1        0.1105
     10 N         141.6614  140.9396  162.0927 N.ar    1  UNL1       -0.2390
     11 C         141.9307  141.3765  160.6833 C.ar    1  UNL1        0.1097
     12 C         140.7573  140.9728  159.8405 C.ar    1  UNL1        0.0553
     13 S         139.7627  140.2863  160.7292 S.2     1  UNL1       -0.0662
     14 CL        137.6633  137.9035  166.9536 Cl      1  UNL1       -0.0822
     15 C         138.3279  138.4940  165.7455 C.ar    1  UNL1        0.0577
     16 C         138.0979  139.9334  165.3915 C.ar    1  UNL1        0.0115
     17 C         138.7625  140.5241  164.1833 C.ar    1  UNL1        0.0029
     18 C         139.6570  139.6752  163.3292 C.ar    1  UNL1        0.0239
     19 C         139.8868  138.2359  163.6833 C.ar    1  UNL1        0.0029
     20 C         139.2223  137.6453  164.8914 C.ar    1  UNL1        0.0115
     21 C         143.5192  144.2085  163.5324 C.3     1  UNL1        0.1022
     22 N         143.5578  142.8013  164.0506 N.3     1  UNL1       -0.2689
     23 C         144.7209  142.0227  163.5112 C.3     1  UNL1        0.0724
     24 C         145.2322  140.6232  163.6844 C.3     1  UNL1        0.0173
     25 C         144.7923  139.4227  164.4686 C.3     1  UNL1        0.0014
     26 C         143.6587  139.1244  165.4046 C.3     1  UNL1        0.0001
     27 C         142.4957  139.9030  165.9440 C.3     1  UNL1        0.0014
     28 C         141.9843  141.3024  165.7708 C.3     1  UNL1        0.0173
     29 C         142.4243  142.5029  164.9865 C.3     1  UNL1        0.0724
@<TRIPOS>BOND
     1    14    15    1
     2    15    16   ar
     3    16    17   ar
     4    17    18   ar
     5    18     9    1
     6     9    10   ar
     7    10    11   ar
     8    11     8    1
     9     8     7    1
    10     7     1    1
    11     1     2   ar
    12     2     3   ar
    13     3     4   ar
    14     4     5   ar
    15     5     6   ar
    16     6    21    1
    17    21    22    1
    18    22    23    1
    19    23    24    1
    20    24    25    1
    21    25    26    1
    22    26    27    1
    23    27    28    1
    24    28    29    1
    25    11    12   ar
    26    12    13   ar
    27    18    19   ar
    28    19    20   ar
    29    20    15   ar
    30    13     9   ar
    31     6     1   ar
    32    29    22    1
@<TRIPOS>MOLECULE
*****
 29 32 0 0 0
SMALL
GASTEIGER

@<TRIPOS>ATOM
      1 C         139.9613  143.3765  160.8628 C.ar    1  UNL1        0.1364
      2 C         140.3724  144.8001  161.0960 C.ar    1  UNL1        0.0366
      3 C         139.6381  145.6378  162.1006 C.ar    1  UNL1        0.0031
      4 C         138.4927  145.0519  162.8719 C.ar    1  UNL1       -0.0001
      5 C         138.0817  143.6283  162.6386 C.ar    1  UNL1        0.0001
      6 C         138.8159  142.7907  161.6341 C.ar    1  UNL1        0.0279
      7 O         140.6956  142.5388  159.8582 O.3     1  UNL1       -0.4692
      8 C         142.1681  142.2993  160.0144 C.3     1  UNL1        0.2513
      9 C         143.0038  140.3686  163.2762 C.ar    1  UNL1        0.1105
     10 N         142.2553  141.4435  162.5452 N.ar    1  UNL1       -0.2390
     11 C         142.6700  141.3994  161.1044 C.ar    1  UNL1        0.1097
     12 C         143.6750  140.2972  160.9449 C.ar    1  UNL1        0.0553
     13 S         143.8812  139.6601  162.2872 S.2     1  UNL1       -0.0662
     14 CL        142.5656  139.1216  169.1288 Cl      1  UNL1       -0.0822
     15 C         142.6751  139.4334  167.6657 C.ar    1  UNL1        0.0577
     16 C         143.4258  138.5069  166.7556 C.ar    1  UNL1        0.0115
     17 C         143.5354  138.8187  165.2924 C.ar    1  UNL1        0.0029
     18 C         142.8942  140.0569  164.7393 C.ar    1  UNL1        0.0239
     19 C         142.1436  140.9833  165.6494 C.ar    1  UNL1        0.0029
     20 C         142.0340  140.6715  167.1126 C.ar    1  UNL1        0.0115
     21 C         138.4048  141.3671  161.4008 C.3     1  UNL1        0.1022
     22 N         138.8986  140.2845  162.3142 N.3     1  UNL1       -0.2689
     23 C         139.7294  139.2624  161.5965 C.3     1  UNL1        0.0724
     24 C         140.4515  138.0106  161.9982 C.3     1  UNL1        0.0173
     25 C         140.6418  137.2622  163.2842 C.3     1  UNL1        0.0014
     26 C         140.1889  137.4557  164.7010 C.3     1  UNL1        0.0001
     27 C         139.3581  138.4777  165.4187 C.3     1  UNL1        0.0014
     28 C         138.6361  139.7296  165.0170 C.3     1  UNL1        0.0173
     29 C         138.4458  140.4780  163.7310 C.3     1  UNL1        0.0724
@<TRIPOS>BOND
     1    14    15    1
     2    15    16   ar
     3    16    17   ar
     4    17    18   ar
     5    18     9    1
     6     9    10   ar
     7    10    11   ar
     8    11     8    1
     9     8     7    1
    10     7     1    1
    11     1     2   ar
    12     2     3   ar
    13     3     4   ar
    14     4     5   ar
    15     5     6   ar
    16     6    21    1
    17    21    22    1
    18    22    23    1
    19    23    24    1
    20    24    25    1
    21    25    26    1
    22    26    27    1
    23    27    28    1
    24    28    29    1
    25    11    12   ar
    26    12    13   ar
    27    18    19   ar
    28    19    20   ar
    29    20    15   ar
    30    13     9   ar
    31     6     1   ar
    32    29    22    1
@<TRIPOS>MOLECULE
*****
 29 32 0 0 0
SMALL
GASTEIGER

@<TRIPOS>ATOM
      1 C         143.4976  142.2437  160.7355 C.ar    1  UNL1        0.1364
      2 C         142.7212  142.0574  159.4656 C.ar    1  UNL1        0.0366
      3 C         142.6505  140.7046  158.8216 C.ar    1  UNL1        0.0031
      4 C         143.3561  139.5381  159.4473 C.ar    1  UNL1       -0.0001
      5 C         144.1325  139.7246  160.7171 C.ar    1  UNL1        0.0001
      6 C         144.2032  141.0773  161.3612 C.ar    1  UNL1        0.0279
      7 O         143.5683  143.5966  161.3796 O.3     1  UNL1       -0.4692
      8 C         142.3125  144.2724  161.8448 C.3     1  UNL1        0.2513
      9 C         140.2929  142.0554  164.3088 C.ar    1  UNL1        0.1105
     10 N         141.0999  142.2207  163.0553 N.ar    1  UNL1       -0.2390
     11 C         141.4970  143.6630  162.9464 C.ar    1  UNL1        0.1097
     12 C         140.9355  144.3892  164.1328 C.ar    1  UNL1        0.0553
     13 S         140.1913  143.3956  164.9749 S.2     1  UNL1       -0.0662
     14 CL        137.8926  136.9330  166.3085 Cl      1  UNL1       -0.0822
     15 C         138.4926  138.2135  165.8086 C.ar    1  UNL1        0.0577
     16 C         138.5602  139.4116  166.7086 C.ar    1  UNL1        0.0115
     17 C         139.1603  140.6923  166.2086 C.ar    1  UNL1        0.0029
     18 C         139.6928  140.7748  164.8087 C.ar    1  UNL1        0.0239
     19 C         139.6252  139.5766  163.9088 C.ar    1  UNL1        0.0029
     20 C         139.0251  138.2960  164.4087 C.ar    1  UNL1        0.0115
     21 C         144.9796  141.2637  162.6310 C.3     1  UNL1        0.1022
     22 N         144.3044  141.0761  163.9574 N.3     1  UNL1       -0.2689
     23 C         144.2435  142.3450  164.7550 C.3     1  UNL1        0.0724
     24 C         143.7016  142.7270  166.1005 C.3     1  UNL1        0.0173
     25 C         142.9960  141.9984  167.2056 C.3     1  UNL1        0.0014
     26 C         142.5402  140.5860  167.4230 C.3     1  UNL1        0.0001
     27 C         142.6011  139.3172  166.6254 C.3     1  UNL1        0.0014
     28 C         143.1431  138.9351  165.2799 C.3     1  UNL1        0.0173
     29 C         143.8486  139.6637  164.1748 C.3     1  UNL1        0.0724
@<TRIPOS>BOND
     1    14    15    1
     2    15    16   ar
     3    16    17   ar
     4    17    18   ar
     5    18     9    1
     6     9    10   ar
     7    10    11   ar
     8    11     8    1
     9     8     7    1
    10     7     1    1
    11     1     2   ar
    12     2     3   ar
    13     3     4   ar
    14     4     5   ar
    15     5     6   ar
    16     6    21    1
    17    21    22    1
    18    22    23    1
    19    23    24    1
    20    24    25    1
    21    25    26    1
    22    26    27    1
    23    27    28    1
    24    28    29    1
    25    11    12   ar
    26    12    13   ar
    27    18    19   ar
    28    19    20   ar
    29    20    15   ar
    30    13     9   ar
    31     6     1   ar
    32    29    22    1
@<TRIPOS>MOLECULE
*****
 29 32 0 0 0
SMALL
GASTEIGER

@<TRIPOS>ATOM
      1 C         140.0758  143.4312  162.1601 C.ar    1  UNL1        0.1364
      2 C         139.0642  144.4496  162.5955 C.ar    1  UNL1        0.0366
      3 C         137.7253  144.0060  163.1061 C.ar    1  UNL1        0.0031
      4 C         137.3980  142.5441  163.1812 C.ar    1  UNL1       -0.0001
      5 C         138.4096  141.5257  162.7457 C.ar    1  UNL1        0.0001
      6 C         139.7484  141.9693  162.2352 C.ar    1  UNL1        0.0279
      7 O         141.4147  143.8748  161.6496 O.3     1  UNL1       -0.4692
      8 C         142.3960  144.5215  162.5816 C.3     1  UNL1        0.2513
      9 C         142.5878  142.6799  165.9930 C.ar    1  UNL1        0.1105
     10 N         141.7959  143.2325  164.8451 N.ar    1  UNL1       -0.2390
     11 C         142.7572  143.8506  163.8737 C.ar    1  UNL1        0.1097
     12 C         144.1434  143.6800  164.4211 C.ar    1  UNL1        0.0553
     13 S         144.0386  142.9564  165.7310 S.2     1  UNL1       -0.0662
     14 CL        140.3458  139.8587  170.7902 Cl      1  UNL1       -0.0822
     15 C         140.9064  140.5640  169.5910 C.ar    1  UNL1        0.0577
     16 C         139.9829  141.1098  168.5424 C.ar    1  UNL1        0.0115
     17 C         140.5434  141.8151  167.3430 C.ar    1  UNL1        0.0029
     18 C         142.0274  141.9746  167.1923 C.ar    1  UNL1        0.0239
     19 C         142.9506  141.4288  168.2409 C.ar    1  UNL1        0.0029
     20 C         142.3902  140.7235  169.4402 C.ar    1  UNL1        0.0115
     21 C         140.7601  140.9509  161.7998 C.3     1  UNL1        0.1022
     22 N         141.7084  140.3602  162.8007 N.3     1  UNL1       -0.2689
     23 C         143.1448  140.6024  162.4429 C.3     1  UNL1        0.0724
     24 C         144.4656  140.2506  163.0607 C.3     1  UNL1        0.0173
     25 C         144.8971  139.5110  164.2923 C.3     1  UNL1        0.0014
     26 C         144.1865  138.8167  165.4161 C.3     1  UNL1        0.0001
     27 C         142.7501  138.5746  165.7739 C.3     1  UNL1        0.0014
     28 C         141.4293  138.9263  165.1561 C.3     1  UNL1        0.0173
     29 C         140.9978  139.6660  163.9246 C.3     1  UNL1        0.0724
@<TRIPOS>BOND
     1    14    15    1
     2    15    16   ar
     3    16    17   ar
     4    17    18   ar
     5    18     9    1
     6     9    10   ar
     7    10    11   ar
     8    11     8    1
     9     8     7    1
    10     7     1    1
    11     1     2   ar
    12     2     3   ar
    13     3     4   ar
    14     4     5   ar
    15     5     6   ar
    16     6    21    1
    17    21    22    1
    18    22    23    1
    19    23    24    1
    20    24    25    1
    21    25    26    1
    22    26    27    1
    23    27    28    1
    24    28    29    1
    25    11    12   ar
    26    12    13   ar
    27    18    19   ar
    28    19    20   ar
    29    20    15   ar
    30    13     9   ar
    31     6     1   ar
    32    29    22    1
@<TRIPOS>MOLECULE
*****
 29 32 0 0 0
SMALL
GASTEIGER

@<TRIPOS>ATOM
      1 C         140.1164  143.4311  161.5071 C.ar    1  UNL1        0.1364
      2 C         140.0691  144.8482  161.9967 C.ar    1  UNL1        0.0366
      3 C         138.8843  145.3322  162.7789 C.ar    1  UNL1        0.0031
      4 C         137.7467  144.3993  163.0715 C.ar    1  UNL1       -0.0001
      5 C         137.7941  142.9822  162.5819 C.ar    1  UNL1        0.0001
      6 C         138.9788  142.4982  161.7997 C.ar    1  UNL1        0.0279
      7 O         141.3013  142.9470  160.7249 O.3     1  UNL1       -0.4692
      8 C         142.6893  143.2987  161.1717 C.3     1  UNL1        0.2513
      9 C         143.2295  142.3286  164.8909 C.ar    1  UNL1        0.1105
     10 N         142.6027  142.0826  163.5505 N.ar    1  UNL1       -0.2390
     11 C         143.0705  143.1583  162.6156 C.ar    1  UNL1        0.1097
     12 C         143.9865  144.0692  163.3782 C.ar    1  UNL1        0.0553
     13 S         144.0847  143.5563  164.7845 S.2     1  UNL1       -0.0662
     14 CL        142.4526  138.9882  169.8141 Cl      1  UNL1       -0.0822
     15 C         142.6468  139.8233  168.5833 C.ar    1  UNL1        0.0577
     16 C         142.7205  141.3173  168.6947 C.ar    1  UNL1        0.0115
     17 C         142.9148  142.1525  167.4638 C.ar    1  UNL1        0.0029
     18 C         143.0353  141.4934  166.1216 C.ar    1  UNL1        0.0239
     19 C         142.9616  139.9994  166.0104 C.ar    1  UNL1        0.0029
     20 C         142.7673  139.1643  167.2412 C.ar    1  UNL1        0.0115
     21 C         139.0262  141.0811  161.3101 C.3     1  UNL1        0.1022
     22 N         139.5876  140.0024  162.1884 N.3     1  UNL1       -0.2689
     23 C         138.6520  139.6194  163.2965 C.3     1  UNL1        0.0724
     24 C         138.6941  138.6352  164.4277 C.3     1  UNL1        0.0173
     25 C         139.6894  137.6264  164.9193 C.3     1  UNL1        0.0014
     26 C         141.0547  137.1839  164.4834 C.3     1  UNL1        0.0001
     27 C         141.9903  137.5669  163.3753 C.3     1  UNL1        0.0014
     28 C         141.9482  138.5511  162.2442 C.3     1  UNL1        0.0173
     29 C         140.9529  139.5599  161.7525 C.3     1  UNL1        0.0724
@<TRIPOS>BOND
     1    14    15    1
     2    15    16   ar
     3    16    17   ar
     4    17    18   ar
     5    18     9    1
     6     9    10   ar
     7    10    11   ar
     8    11     8    1
     9     8     7    1
    10     7     1    1
    11     1     2   ar
    12     2     3   ar
    13     3     4   ar
    14     4     5   ar
    15     5     6   ar
    16     6    21    1
    17    21    22    1
    18    22    23    1
    19    23    24    1
    20    24    25    1
    21    25    26    1
    22    26    27    1
    23    27    28    1
    24    28    29    1
    25    11    12   ar
    26    12    13   ar
    27    18    19   ar
    28    19    20   ar
    29    20    15   ar
    30    13     9   ar
    31     6     1   ar
    32    29    22    1
