@<TRIPOS>MOLECULE
*****
 33 37 0 0 0
SMALL
GASTEIGER

@<TRIPOS>ATOM
      1 C         142.1195  138.3272  160.2312 C.ar    1  UNL1        0.1074
      2 C         141.1597  138.9790  159.2805 C.ar    1  UNL1        0.0588
      3 S         141.4835  138.5025  157.8956 S.2     1  UNL1       -0.0508
      4 C         142.6434  137.5562  157.9903 C.ar    1  UNL1        0.1646
      5 N         143.0365  137.4479  159.4338 N.ar    1  UNL1       -0.2224
      6 C         143.0564  139.7861  163.8010 C.ar    1  UNL1        0.2416
      7 N         143.0199  139.5925  162.3140 N.ar    1  UNL1       -0.2089
      8 C         142.1560  138.5208  161.7182 C.ar    1  UNL1        0.1026
      9 C         141.3285  137.6426  162.6094 C.ar    1  UNL1        0.0224
     10 C         141.3650  137.8362  164.0964 C.ar    1  UNL1        0.0239
     11 C         142.2289  138.9079  164.6922 C.ar    1  UNL1        0.1189
     12 N         142.2653  139.1015  166.1792 N.ar    1  UNL1       -0.2826
     13 C         143.3383  138.6119  167.1060 C.ar    1  UNL1        0.1826
     14 N         142.9713  139.0264  168.5001 N.ar    1  UNL1       -0.2280
     15 C         141.6715  139.7722  168.4349 C.ar    1  UNL1        0.0786
     16 C         140.9369  140.3672  169.5996 C.3     1  UNL1        0.0538
     17 C         141.2352  139.8186  167.0005 C.ar    1  UNL1        0.0963
     18 C         145.3576  140.9777  163.9853 C.3     1  UNL1        0.2543
     19 O         143.9203  140.8578  164.3969 O.3     1  UNL1       -0.4551
     20 N         143.2958  136.8434  156.8430 N.pl3   1  UNL1       -0.2786
     21 H         144.1233  137.2013  156.4475 H       1  UNL1        0.1555
     22 C         142.6873  135.5852  156.2982 C.ar    1  UNL1        0.1276
     23 C         143.0831  134.1850  156.6622 C.ar    1  UNL1        0.0244
     24 C         142.2166  133.2408  155.8827 C.ar    1  UNL1        0.0773
     25 N         141.2852  134.0575  155.0369 N.ar    1  UNL1       -0.1728
     26 N         141.5760  135.5065  155.2936 N.ar    1  UNL1       -0.2357
     27 C         142.6124  131.8405  156.2467 C.3     1  UNL1        0.0477
     28 C         143.7236  131.9193  157.2512 C.3     1  UNL1        0.0112
     29 C         144.0145  133.3682  157.5080 C.3     1  UNL1        0.0308
     30 C         140.8783  136.6720  154.6576 C.3     1  UNL1        0.1604
     31 C         139.4079  136.8751  154.8740 C.3     1  UNL1        0.1635
     32 O         138.8029  136.6011  156.2189 O.3     1  UNL1       -0.3799
     33 H         138.8663  135.6532  156.4149 H       1  UNL1        0.2105
@<TRIPOS>BOND
     1    18    19    1
     2    19     6    1
     3     6     7   ar
     4     7     8   ar
     5     8     1    1
     6     1     2   ar
     7     2     3   ar
     8     3     4   ar
     9     4    20    1
    10    20    22    1
    11    22    23   ar
    12    23    24   ar
    13    24    25   ar
    14    25    26   ar
    15    26    30    1
    16    30    31    1
    17    31    32    1
    18    24    27    1
    19    27    28    1
    20    28    29    1
    21     4     5   ar
    22     8     9   ar
    23     9    10   ar
    24    10    11   ar
    25    11    12    1
    26    12    13   ar
    27    13    14   ar
    28    14    15   ar
    29    15    16    1
    30    15    17   ar
    31    11     6   ar
    32    17    12   ar
    33     5     1   ar
    34    26    22   ar
    35    29    23    1
    36    20    21    1
    37    32    33    1
@<TRIPOS>MOLECULE
*****
 33 37 0 0 0
SMALL
GASTEIGER

@<TRIPOS>ATOM
      1 C         141.4579  138.6649  159.8703 C.ar    1  UNL1        0.1074
      2 C         141.2391  139.6647  158.7737 C.ar    1  UNL1        0.0588
      3 S         141.9188  139.1536  157.5381 S.2     1  UNL1       -0.0508
      4 C         142.5577  137.8380  157.8711 C.ar    1  UNL1        0.1646
      5 N         142.2729  137.5360  159.3125 N.ar    1  UNL1       -0.2224
      6 C         139.2221  139.7037  162.9803 C.ar    1  UNL1        0.2416
      7 N         139.7292  139.5938  161.5729 N.ar    1  UNL1       -0.2089
      8 C         140.9508  138.7749  161.2777 C.ar    1  UNL1        0.1026
      9 C         141.6653  138.0659  162.3900 C.ar    1  UNL1        0.0224
     10 C         141.1582  138.1759  163.7973 C.ar    1  UNL1        0.0239
     11 C         139.9366  138.9948  164.0926 C.ar    1  UNL1        0.1189
     12 N         139.4295  139.1047  165.4999 N.ar    1  UNL1       -0.2826
     13 C         138.2267  138.4057  166.0608 C.ar    1  UNL1        0.1826
     14 N         138.0900  138.8019  167.5010 N.ar    1  UNL1       -0.2280
     15 C         139.2083  139.7458  167.8303 C.ar    1  UNL1        0.0786
     16 C         139.4554  140.3896  169.1624 C.3     1  UNL1        0.0538
     17 C         140.0361  139.9329  166.5935 C.ar    1  UNL1        0.0963
     18 C         137.7200  141.7640  162.4818 C.3     1  UNL1        0.2543
     19 O         138.0005  140.5226  163.2756 O.3     1  UNL1       -0.4551
     20 N         143.3436  136.9757  156.9283 N.pl3   1  UNL1       -0.2786
     21 H         144.2515  137.2430  156.6573 H       1  UNL1        0.1555
     22 C         142.7461  135.7060  156.3982 C.ar    1  UNL1        0.1276
     23 C         143.1703  134.3136  156.7602 C.ar    1  UNL1        0.0244
     24 C         142.3058  133.3528  155.9989 C.ar    1  UNL1        0.0773
     25 N         141.3473  134.1515  155.1663 N.ar    1  UNL1       -0.1728
     26 N         141.6193  135.6059  155.4130 N.ar    1  UNL1       -0.2357
     27 C         142.7301  131.9604  156.3609 C.3     1  UNL1        0.0477
     28 C         143.8568  132.0605  157.3460 C.3     1  UNL1        0.0112
     29 C         144.1289  133.5148  157.5928 C.3     1  UNL1        0.0308
     30 C         140.8923  136.7578  154.7850 C.3     1  UNL1        0.1604
     31 C         139.4048  136.8783  154.9365 C.3     1  UNL1        0.1635
     32 O         138.7699  136.6859  156.2817 O.3     1  UNL1       -0.3799
     33 H         138.8880  135.7662  156.5665 H       1  UNL1        0.2105
@<TRIPOS>BOND
     1    18    19    1
     2    19     6    1
     3     6     7   ar
     4     7     8   ar
     5     8     1    1
     6     1     2   ar
     7     2     3   ar
     8     3     4   ar
     9     4    20    1
    10    20    22    1
    11    22    23   ar
    12    23    24   ar
    13    24    25   ar
    14    25    26   ar
    15    26    30    1
    16    30    31    1
    17    31    32    1
    18    24    27    1
    19    27    28    1
    20    28    29    1
    21     4     5   ar
    22     8     9   ar
    23     9    10   ar
    24    10    11   ar
    25    11    12    1
    26    12    13   ar
    27    13    14   ar
    28    14    15   ar
    29    15    16    1
    30    15    17   ar
    31    11     6   ar
    32    17    12   ar
    33     5     1   ar
    34    26    22   ar
    35    29    23    1
    36    20    21    1
    37    32    33    1
@<TRIPOS>MOLECULE
*****
 33 37 0 0 0
SMALL
GASTEIGER

@<TRIPOS>ATOM
      1 C         142.7830  142.9550  163.7256 C.ar    1  UNL1        0.1074
      2 C         143.6641  143.6626  164.7120 C.ar    1  UNL1        0.0588
      3 S         143.7983  142.7888  165.9238 S.2     1  UNL1       -0.0508
      4 C         143.0001  141.5412  165.6863 C.ar    1  UNL1        0.1646
      5 N         142.3726  141.6439  164.3278 N.ar    1  UNL1       -0.2224
      6 C         142.6380  143.4366  159.7890 C.ar    1  UNL1        0.2416
      7 N         143.0384  142.9232  161.1403 N.ar    1  UNL1       -0.2089
      8 C         142.3825  143.4683  162.3743 C.ar    1  UNL1        0.1026
      9 C         141.3262  144.5269  162.2569 C.ar    1  UNL1        0.0224
     10 C         140.9257  145.0403  160.9056 C.ar    1  UNL1        0.0239
     11 C         141.5816  144.4951  159.6716 C.ar    1  UNL1        0.1189
     12 N         141.1812  145.0085  158.3203 N.ar    1  UNL1       -0.2826
     13 C         141.9811  145.9398  157.4584 C.ar    1  UNL1        0.1826
     14 N         141.2048  146.1876  156.1991 N.ar    1  UNL1       -0.2280
     15 C         139.9251  145.4094  156.2827 C.ar    1  UNL1        0.0786
     16 C         138.8489  145.3674  155.2385 C.3     1  UNL1        0.0538
     17 C         139.9106  144.6808  157.5936 C.ar    1  UNL1        0.0963
     18 C         144.7252  142.4455  158.6012 C.3     1  UNL1        0.2543
     19 O         143.2938  142.8915  158.5550 O.3     1  UNL1       -0.4551
     20 N         142.8549  140.3925  166.6400 N.pl3   1  UNL1       -0.2786
     21 H         143.6264  139.8120  166.8326 H       1  UNL1        0.1555
     22 C         141.5342  140.1283  167.3003 C.ar    1  UNL1        0.1276
     23 C         140.2835  139.6627  166.6155 C.ar    1  UNL1        0.0244
     24 C         139.2086  139.5300  167.6533 C.ar    1  UNL1        0.0773
     25 N         139.7950  139.9134  168.9796 N.ar    1  UNL1       -0.1728
     26 N         141.2323  140.2832  168.7615 N.ar    1  UNL1       -0.2357
     27 C         137.9580  139.0644  166.9684 C.3     1  UNL1        0.0477
     28 C         138.2599  138.9095  165.5073 C.3     1  UNL1        0.0112
     29 C         139.6971  139.2793  165.2892 C.3     1  UNL1        0.0308
     30 C         142.1981  140.7296  169.8188 C.3     1  UNL1        0.1604
     31 C         141.6875  141.3132  171.1029 C.3     1  UNL1        0.1635
     32 O         140.6515  140.5787  171.9010 O.3     1  UNL1       -0.3799
     33 H         139.8226  140.5417  171.3986 H       1  UNL1        0.2105
@<TRIPOS>BOND
     1    18    19    1
     2    19     6    1
     3     6     7   ar
     4     7     8   ar
     5     8     1    1
     6     1     2   ar
     7     2     3   ar
     8     3     4   ar
     9     4    20    1
    10    20    22    1
    11    22    23   ar
    12    23    24   ar
    13    24    25   ar
    14    25    26   ar
    15    26    30    1
    16    30    31    1
    17    31    32    1
    18    24    27    1
    19    27    28    1
    20    28    29    1
    21     4     5   ar
    22     8     9   ar
    23     9    10   ar
    24    10    11   ar
    25    11    12    1
    26    12    13   ar
    27    13    14   ar
    28    14    15   ar
    29    15    16    1
    30    15    17   ar
    31    11     6   ar
    32    17    12   ar
    33     5     1   ar
    34    26    22   ar
    35    29    23    1
    36    20    21    1
    37    32    33    1
@<TRIPOS>MOLECULE
*****
 33 37 0 0 0
SMALL
GASTEIGER

@<TRIPOS>ATOM
      1 C         142.8464  141.7470  163.1500 C.ar    1  UNL1        0.1074
      2 C         143.9540  140.7389  163.2330 C.ar    1  UNL1        0.0588
      3 S         144.0338  140.2537  164.6502 S.2     1  UNL1       -0.0508
      4 C         142.9756  140.9619  165.4429 C.ar    1  UNL1        0.1646
      5 N         142.2418  141.8848  164.5158 N.ar    1  UNL1       -0.2224
      6 C         140.8478  144.1966  160.7511 C.ar    1  UNL1        0.2416
      7 N         141.2755  143.4563  161.9836 N.ar    1  UNL1       -0.2089
      8 C         142.4187  142.4873  161.9175 C.ar    1  UNL1        0.1026
      9 C         143.1340  142.2585  160.6190 C.ar    1  UNL1        0.0224
     10 C         142.7062  142.9988  159.3866 C.ar    1  UNL1        0.0239
     11 C         141.5631  143.9679  159.4526 C.ar    1  UNL1        0.1189
     12 N         141.1353  144.7081  158.2201 N.ar    1  UNL1       -0.2826
     13 C         141.8777  145.8360  157.5669 C.ar    1  UNL1        0.1826
     14 N         141.0912  146.2754  156.3676 N.ar    1  UNL1       -0.2280
     15 C         139.8628  145.4192  156.2796 C.ar    1  UNL1        0.0786
     16 C         138.7946  145.5147  155.2308 C.3     1  UNL1        0.0538
     17 C         139.8901  144.4506  157.4245 C.ar    1  UNL1        0.0963
     18 C         139.7063  146.2584  161.8446 C.3     1  UNL1        0.2543
     19 O         139.7047  145.1656  160.8171 O.3     1  UNL1       -0.4551
     20 N         142.6996  140.7793  166.9060 N.pl3   1  UNL1       -0.2786
     21 H         143.4273  140.8834  167.5609 H       1  UNL1        0.1555
     22 C         141.3150  140.4381  167.3712 C.ar    1  UNL1        0.1276
     23 C         140.2969  139.6477  166.6040 C.ar    1  UNL1        0.0244
     24 C         139.0580  139.5485  167.4438 C.ar    1  UNL1        0.0773
     25 N         139.3104  140.2777  168.7301 N.ar    1  UNL1       -0.1728
     26 N         140.7053  140.8275  168.6853 N.ar    1  UNL1       -0.2357
     27 C         138.0399  138.7580  166.6766 C.3     1  UNL1        0.0477
     28 C         138.6495  138.3687  165.3626 C.3     1  UNL1        0.0112
     29 C         140.0444  138.9185  165.3177 C.3     1  UNL1        0.0308
     30 C         141.3733  141.6264  169.7648 C.3     1  UNL1        0.1604
     31 C         141.7520  140.9692  171.0590 C.3     1  UNL1        0.1635
     32 O         140.6877  140.5756  172.0399 O.3     1  UNL1       -0.3799
     33 H         140.2539  141.3724  172.3833 H       1  UNL1        0.2105
@<TRIPOS>BOND
     1    18    19    1
     2    19     6    1
     3     6     7   ar
     4     7     8   ar
     5     8     1    1
     6     1     2   ar
     7     2     3   ar
     8     3     4   ar
     9     4    20    1
    10    20    22    1
    11    22    23   ar
    12    23    24   ar
    13    24    25   ar
    14    25    26   ar
    15    26    30    1
    16    30    31    1
    17    31    32    1
    18    24    27    1
    19    27    28    1
    20    28    29    1
    21     4     5   ar
    22     8     9   ar
    23     9    10   ar
    24    10    11   ar
    25    11    12    1
    26    12    13   ar
    27    13    14   ar
    28    14    15   ar
    29    15    16    1
    30    15    17   ar
    31    11     6   ar
    32    17    12   ar
    33     5     1   ar
    34    26    22   ar
    35    29    23    1
    36    20    21    1
    37    32    33    1
@<TRIPOS>MOLECULE
*****
 33 37 0 0 0
SMALL
GASTEIGER

@<TRIPOS>ATOM
      1 C         143.6651  140.4324  163.0853 C.ar    1  UNL1        0.1074
      2 C         144.0012  139.1294  163.7480 C.ar    1  UNL1        0.0588
      3 S         143.6500  139.2446  165.2017 S.2     1  UNL1       -0.0508
      4 C         143.0969  140.6188  165.4375 C.ar    1  UNL1        0.1646
      5 N         143.1062  141.3529  164.1295 N.ar    1  UNL1       -0.2224
      6 C         143.8211  140.0264  159.1406 C.ar    1  UNL1        0.2416
      7 N         143.6316  139.7010  160.5926 N.ar    1  UNL1       -0.2089
      8 C         143.8546  140.7578  161.6334 C.ar    1  UNL1        0.1026
      9 C         144.2672  142.1402  161.2222 C.ar    1  UNL1        0.0224
     10 C         144.4567  142.4656  159.7702 C.ar    1  UNL1        0.0239
     11 C         144.2337  141.4087  158.7294 C.ar    1  UNL1        0.1189
     12 N         144.4232  141.7341  157.2775 N.ar    1  UNL1       -0.2826
     13 C         143.4359  142.4399  156.3960 C.ar    1  UNL1        0.1826
     14 N         144.0358  142.5529  155.0258 N.ar    1  UNL1       -0.2280
     15 C         145.3938  141.9169  155.0605 C.ar    1  UNL1        0.0786
     16 C         146.3455  141.8063  153.9063 C.3     1  UNL1        0.0538
     17 C         145.6332  141.4109  156.4521 C.ar    1  UNL1        0.0963
     18 C         142.2527  138.8269  157.4521 C.3     1  UNL1        0.2543
     19 O         143.5980  138.9695  158.0998 O.3     1  UNL1       -0.4551
     20 N         142.6184  141.1633  166.7508 N.pl3   1  UNL1       -0.2786
     21 H         143.1176  141.8862  167.1952 H       1  UNL1        0.1555
     22 C         141.3795  140.6063  167.3870 C.ar    1  UNL1        0.1276
     23 C         140.2166  139.9934  166.6645 C.ar    1  UNL1        0.0244
     24 C         139.2042  139.5727  167.6883 C.ar    1  UNL1        0.0773
     25 N         139.7414  139.9257  169.0436 N.ar    1  UNL1       -0.1728
     26 N         141.0858  140.5645  168.8574 N.ar    1  UNL1       -0.2357
     27 C         138.0414  138.9597  166.9658 C.3     1  UNL1        0.0477
     28 C         138.3350  139.0016  165.4954 C.3     1  UNL1        0.0112
     29 C         139.6794  139.6404  165.3092 C.3     1  UNL1        0.0308
     30 C         141.9795  141.0723  169.9497 C.3     1  UNL1        0.1604
     31 C         141.4047  141.4082  171.2939 C.3     1  UNL1        0.1635
     32 O         140.5540  140.4068  172.0173 O.3     1  UNL1       -0.3799
     33 H         139.7330  140.2617  171.5214 H       1  UNL1        0.2105
@<TRIPOS>BOND
     1    18    19    1
     2    19     6    1
     3     6     7   ar
     4     7     8   ar
     5     8     1    1
     6     1     2   ar
     7     2     3   ar
     8     3     4   ar
     9     4    20    1
    10    20    22    1
    11    22    23   ar
    12    23    24   ar
    13    24    25   ar
    14    25    26   ar
    15    26    30    1
    16    30    31    1
    17    31    32    1
    18    24    27    1
    19    27    28    1
    20    28    29    1
    21     4     5   ar
    22     8     9   ar
    23     9    10   ar
    24    10    11   ar
    25    11    12    1
    26    12    13   ar
    27    13    14   ar
    28    14    15   ar
    29    15    16    1
    30    15    17   ar
    31    11     6   ar
    32    17    12   ar
    33     5     1   ar
    34    26    22   ar
    35    29    23    1
    36    20    21    1
    37    32    33    1
@<TRIPOS>MOLECULE
*****
 33 37 0 0 0
SMALL
GASTEIGER

@<TRIPOS>ATOM
      1 C         142.1598  138.3719  159.8915 C.ar    1  UNL1        0.1074
      2 C         140.9635  138.5045  158.9965 C.ar    1  UNL1        0.0588
      3 S         141.3395  137.9854  157.6403 S.2     1  UNL1       -0.0508
      4 C         142.7682  137.5320  157.6972 C.ar    1  UNL1        0.1646
      5 N         143.2751  137.7708  159.0885 N.ar    1  UNL1       -0.2224
      6 C         141.0370  139.3035  163.5822 C.ar    1  UNL1        0.2416
      7 N         140.9681  138.9051  162.1378 N.ar    1  UNL1       -0.2089
      8 C         142.2287  138.7703  161.3360 C.ar    1  UNL1        0.1026
      9 C         143.5582  139.0339  161.9788 C.ar    1  UNL1        0.0224
     10 C         143.6271  139.4324  163.4232 C.ar    1  UNL1        0.0239
     11 C         142.3665  139.5672  164.2250 C.ar    1  UNL1        0.1189
     12 N         142.4353  139.9656  165.6695 N.ar    1  UNL1       -0.2826
     13 C         142.5322  141.3676  166.1936 C.ar    1  UNL1        0.1826
     14 N         142.5761  141.3005  167.6915 N.ar    1  UNL1       -0.2280
     15 C         142.5065  139.8569  168.0930 C.ar    1  UNL1        0.0786
     16 C         142.5213  139.3307  169.4976 C.3     1  UNL1        0.0538
     17 C         142.4195  139.0319  166.8433 C.ar    1  UNL1        0.0963
     18 C         138.9748  138.2192  164.7317 C.3     1  UNL1        0.2543
     19 O         139.7764  139.4383  164.3840 O.3     1  UNL1       -0.4551
     20 N         143.5523  136.9432  156.5621 N.pl3   1  UNL1       -0.2786
     21 H         144.3874  137.3722  156.2659 H       1  UNL1        0.1555
     22 C         143.0640  135.7006  155.8783 C.ar    1  UNL1        0.1276
     23 C         142.4440  135.6305  154.5142 C.ar    1  UNL1        0.0244
     24 C         142.1067  134.1965  154.2314 C.ar    1  UNL1        0.0773
     25 N         142.5183  133.3803  155.4207 N.ar    1  UNL1       -0.1728
     26 N         143.1099  134.3098  156.4386 N.ar    1  UNL1       -0.2357
     27 C         141.4867  134.1264  152.8674 C.3     1  UNL1        0.0477
     28 C         141.4409  135.5171  152.3071 C.3     1  UNL1        0.0112
     29 C         142.0325  136.4467  153.3249 C.3     1  UNL1        0.0308
     30 C         143.6521  133.9176  157.7810 C.3     1  UNL1        0.1604
     31 C         144.8178  132.9780  157.8736 C.3     1  UNL1        0.1635
     32 O         145.4351  132.4232  156.6243 O.3     1  UNL1       -0.3799
     33 H         144.7966  131.8461  156.1769 H       1  UNL1        0.2105
@<TRIPOS>BOND
     1    18    19    1
     2    19     6    1
     3     6     7   ar
     4     7     8   ar
     5     8     1    1
     6     1     2   ar
     7     2     3   ar
     8     3     4   ar
     9     4    20    1
    10    20    22    1
    11    22    23   ar
    12    23    24   ar
    13    24    25   ar
    14    25    26   ar
    15    26    30    1
    16    30    31    1
    17    31    32    1
    18    24    27    1
    19    27    28    1
    20    28    29    1
    21     4     5   ar
    22     8     9   ar
    23     9    10   ar
    24    10    11   ar
    25    11    12    1
    26    12    13   ar
    27    13    14   ar
    28    14    15   ar
    29    15    16    1
    30    15    17   ar
    31    11     6   ar
    32    17    12   ar
    33     5     1   ar
    34    26    22   ar
    35    29    23    1
    36    20    21    1
    37    32    33    1
@<TRIPOS>MOLECULE
*****
 33 37 0 0 0
SMALL
GASTEIGER

@<TRIPOS>ATOM
      1 C         142.9000  139.3268  159.4785 C.ar    1  UNL1        0.1074
      2 C         143.4548  138.4696  160.5772 C.ar    1  UNL1        0.0588
      3 S         142.3035  137.9524  161.3878 S.2     1  UNL1       -0.0508
      4 C         141.0372  138.4900  160.7899 C.ar    1  UNL1        0.1646
      5 N         141.4059  139.3394  159.6099 N.ar    1  UNL1       -0.2224
      6 C         144.8360  140.0758  156.0960 C.ar    1  UNL1        0.2416
      7 N         144.0369  139.3573  157.1425 N.ar    1  UNL1       -0.2089
      8 C         143.6991  140.0453  158.4320 C.ar    1  UNL1        0.1026
      9 C         144.1606  141.4518  158.6749 C.ar    1  UNL1        0.0224
     10 C         144.9597  142.1703  157.6284 C.ar    1  UNL1        0.0239
     11 C         145.2974  141.4823  156.3389 C.ar    1  UNL1        0.1189
     12 N         146.0965  142.2008  155.2924 N.ar    1  UNL1       -0.2826
     13 C         145.5624  143.1919  154.3013 C.ar    1  UNL1        0.1826
     14 N         146.7058  143.6579  153.4496 N.ar    1  UNL1       -0.2280
     15 C         147.9466  142.9548  153.9144 C.ar    1  UNL1        0.0786
     16 C         149.3225  143.1228  153.3409 C.3     1  UNL1        0.0538
     17 C         147.5700  142.0543  155.0532 C.ar    1  UNL1        0.0963
     18 C         144.3077  139.5912  153.5988 C.3     1  UNL1        0.2543
     19 O         145.1737  139.3878  154.8065 O.3     1  UNL1       -0.4551
     20 N         139.6463  138.2247  161.2852 N.pl3   1  UNL1       -0.2786
     21 H         139.1192  137.4874  160.9008 H       1  UNL1        0.1555
     22 C         139.0586  139.0829  162.3660 C.ar    1  UNL1        0.1276
     23 C         138.8325  138.6741  163.7913 C.ar    1  UNL1        0.0244
     24 C         138.2280  139.8391  164.5175 C.ar    1  UNL1        0.0773
     25 N         138.0805  140.9681  163.5409 N.ar    1  UNL1       -0.1728
     26 N         138.5938  140.5008  162.2111 N.ar    1  UNL1       -0.2357
     27 C         138.0019  139.4303  165.9428 C.3     1  UNL1        0.0477
     28 C         138.4667  138.0126  166.0976 C.3     1  UNL1        0.0112
     29 C         138.9800  137.5452  164.7680 C.3     1  UNL1        0.0308
     30 C         138.6352  141.3092  160.9484 C.3     1  UNL1        0.1604
     31 C         138.3827  142.7871  160.9953 C.3     1  UNL1        0.1635
     32 O         137.4161  143.3515  161.9938 O.3     1  UNL1       -0.3799
     33 H         136.5206  143.0403  161.7886 H       1  UNL1        0.2105
@<TRIPOS>BOND
     1    18    19    1
     2    19     6    1
     3     6     7   ar
     4     7     8   ar
     5     8     1    1
     6     1     2   ar
     7     2     3   ar
     8     3     4   ar
     9     4    20    1
    10    20    22    1
    11    22    23   ar
    12    23    24   ar
    13    24    25   ar
    14    25    26   ar
    15    26    30    1
    16    30    31    1
    17    31    32    1
    18    24    27    1
    19    27    28    1
    20    28    29    1
    21     4     5   ar
    22     8     9   ar
    23     9    10   ar
    24    10    11   ar
    25    11    12    1
    26    12    13   ar
    27    13    14   ar
    28    14    15   ar
    29    15    16    1
    30    15    17   ar
    31    11     6   ar
    32    17    12   ar
    33     5     1   ar
    34    26    22   ar
    35    29    23    1
    36    20    21    1
    37    32    33    1
@<TRIPOS>MOLECULE
*****
 33 37 0 0 0
SMALL
GASTEIGER

@<TRIPOS>ATOM
      1 C         142.7990  137.6195  156.8950 C.ar    1  UNL1        0.1074
      2 C         143.5681  137.4435  155.6193 C.ar    1  UNL1        0.0588
      3 S         143.1156  136.1652  154.9779 S.2     1  UNL1       -0.0508
      4 C         142.0670  135.5513  155.8573 C.ar    1  UNL1        0.1646
      5 N         141.8713  136.4500  157.0421 N.ar    1  UNL1       -0.2224
      6 C         143.6475  139.6785  160.1799 C.ar    1  UNL1        0.2416
      7 N         143.5125  138.5339  159.2198 N.ar    1  UNL1       -0.2089
      8 C         142.9340  138.7640  157.8551 C.ar    1  UNL1        0.1026
      9 C         142.4905  140.1387  157.4505 C.ar    1  UNL1        0.0224
     10 C         142.6255  141.2833  158.4106 C.ar    1  UNL1        0.0239
     11 C         143.2040  141.0532  159.7753 C.ar    1  UNL1        0.1189
     12 N         143.3390  142.1977  160.7354 N.ar    1  UNL1       -0.2826
     13 C         144.6189  142.8769  161.1232 C.ar    1  UNL1        0.1826
     14 N         144.2887  143.9629  162.1037 N.ar    1  UNL1       -0.2280
     15 C         142.8046  143.9550  162.3219 C.ar    1  UNL1        0.0786
     16 C         142.0415  144.8762  163.2269 C.3     1  UNL1        0.0538
     17 C         142.2177  142.8640  161.4763 C.ar    1  UNL1        0.0963
     18 C         143.3316  139.0492  162.6807 C.3     1  UNL1        0.2543
     19 O         144.2259  139.4484  161.5447 O.3     1  UNL1       -0.4551
     20 N         141.3414  134.2643  155.5975 N.pl3   1  UNL1       -0.2786
     21 H         140.4271  134.2797  155.2328 H       1  UNL1        0.1555
     22 C         142.0089  132.9540  155.8934 C.ar    1  UNL1        0.1276
     23 C         143.2245  132.7574  156.7499 C.ar    1  UNL1        0.0244
     24 C         143.5449  131.2921  156.7706 C.ar    1  UNL1        0.0773
     25 N         142.5273  130.5832  155.9268 N.ar    1  UNL1       -0.1728
     26 N         141.5779  131.6103  155.3847 N.ar    1  UNL1       -0.2357
     27 C         144.7604  131.0954  157.6271 C.3     1  UNL1        0.0477
     28 C         145.1913  132.4392  158.1358 C.3     1  UNL1        0.0112
     29 C         144.2421  133.4663  157.5936 C.3     1  UNL1        0.0308
     30 C         140.4039  131.3410  154.4908 C.3     1  UNL1        0.1604
     31 C         139.9615  129.9301  154.2384 C.3     1  UNL1        0.1635
     32 O         140.1747  128.8783  155.2863 O.3     1  UNL1       -0.3799
     33 H         141.1257  128.7309  155.4076 H       1  UNL1        0.2105
@<TRIPOS>BOND
     1    18    19    1
     2    19     6    1
     3     6     7   ar
     4     7     8   ar
     5     8     1    1
     6     1     2   ar
     7     2     3   ar
     8     3     4   ar
     9     4    20    1
    10    20    22    1
    11    22    23   ar
    12    23    24   ar
    13    24    25   ar
    14    25    26   ar
    15    26    30    1
    16    30    31    1
    17    31    32    1
    18    24    27    1
    19    27    28    1
    20    28    29    1
    21     4     5   ar
    22     8     9   ar
    23     9    10   ar
    24    10    11   ar
    25    11    12    1
    26    12    13   ar
    27    13    14   ar
    28    14    15   ar
    29    15    16    1
    30    15    17   ar
    31    11     6   ar
    32    17    12   ar
    33     5     1   ar
    34    26    22   ar
    35    29    23    1
    36    20    21    1
    37    32    33    1
@<TRIPOS>MOLECULE
*****
 33 37 0 0 0
SMALL
GASTEIGER

@<TRIPOS>ATOM
      1 C         141.6020  139.7207  159.5927 C.ar    1  UNL1        0.1074
      2 C         142.5865  138.7044  159.0947 C.ar    1  UNL1        0.0588
      3 S         142.8725  137.7485  160.2147 S.2     1  UNL1       -0.0508
      4 C         142.0647  138.1740  161.4049 C.ar    1  UNL1        0.1646
      5 N         141.2796  139.3928  161.0205 N.ar    1  UNL1       -0.2224
      6 C         140.0094  143.2478  158.7136 C.ar    1  UNL1        0.2416
      7 N         140.5726  142.1045  159.5045 N.ar    1  UNL1       -0.2089
      8 C         141.0389  140.8640  158.8018 C.ar    1  UNL1        0.1026
      9 C         140.9420  140.7669  157.3080 C.ar    1  UNL1        0.0224
     10 C         140.3788  141.9103  156.5170 C.ar    1  UNL1        0.0239
     11 C         139.9125  143.1507  157.2198 C.ar    1  UNL1        0.1189
     12 N         139.3494  144.2941  156.4289 N.ar    1  UNL1       -0.2826
     13 C         138.0467  144.2947  155.6852 C.ar    1  UNL1        0.1826
     14 N         137.8823  145.6385  155.0395 N.ar    1  UNL1       -0.2280
     15 C         139.0833  146.4685  155.3841 C.ar    1  UNL1        0.0786
     16 C         139.3337  147.8813  154.9467 C.3     1  UNL1        0.0538
     17 C         139.9900  145.6376  156.2427 C.ar    1  UNL1        0.0963
     18 C         140.4466  145.1818  160.3924 C.3     1  UNL1        0.2543
     19 O         139.5431  144.4883  159.4164 O.3     1  UNL1       -0.4551
     20 N         142.0455  137.4991  162.7444 N.pl3   1  UNL1       -0.2786
     21 H         142.2274  136.5339  162.8120 H       1  UNL1        0.1555
     22 C         141.7492  138.2948  163.9809 C.ar    1  UNL1        0.1276
     23 C         140.4414  138.3295  164.7147 C.ar    1  UNL1        0.0244
     24 C         140.5925  139.2517  165.8881 C.ar    1  UNL1        0.0773
     25 N         141.9938  139.7869  165.8795 N.ar    1  UNL1       -0.1728
     26 N         142.7087  139.1955  164.7008 N.ar    1  UNL1       -0.2357
     27 C         139.2847  139.2864  166.6219 C.3     1  UNL1        0.0477
     28 C         138.3253  138.3857  165.9020 C.3     1  UNL1        0.0112
     29 C         139.0401  137.7943  164.7233 C.3     1  UNL1        0.0308
     30 C         144.1328  139.4587  164.3105 C.3     1  UNL1        0.1604
     31 C         144.4509  140.5320  163.3120 C.3     1  UNL1        0.1635
     32 O         144.9961  140.1645  161.9639 O.3     1  UNL1       -0.3799
     33 H         145.8774  139.7728  162.0674 H       1  UNL1        0.2105
@<TRIPOS>BOND
     1    18    19    1
     2    19     6    1
     3     6     7   ar
     4     7     8   ar
     5     8     1    1
     6     1     2   ar
     7     2     3   ar
     8     3     4   ar
     9     4    20    1
    10    20    22    1
    11    22    23   ar
    12    23    24   ar
    13    24    25   ar
    14    25    26   ar
    15    26    30    1
    16    30    31    1
    17    31    32    1
    18    24    27    1
    19    27    28    1
    20    28    29    1
    21     4     5   ar
    22     8     9   ar
    23     9    10   ar
    24    10    11   ar
    25    11    12    1
    26    12    13   ar
    27    13    14   ar
    28    14    15   ar
    29    15    16    1
    30    15    17   ar
    31    11     6   ar
    32    17    12   ar
    33     5     1   ar
    34    26    22   ar
    35    29    23    1
    36    20    21    1
    37    32    33    1
