@<TRIPOS>MOLECULE
*****
 37 39 0 0 0
SMALL
GASTEIGER

@<TRIPOS>ATOM
      1 N         142.9292  139.2104  163.0414 N.am    1  UNL1       -0.2797
      2 C         144.1015  139.7916  162.3080 C.3     1  UNL1        0.0956
      3 C         144.2696  139.0312  161.0260 C.3     1  UNL1        0.0505
      4 C         143.2012  137.9799  160.9670 C.3     1  UNL1        0.1507
      5 C         142.3728  138.0907  162.2126 C.2     1  UNL1        0.2435
      6 O         141.1948  137.2324  162.5672 O.2     1  UNL1       -0.2731
      7 C         141.3363  140.7186  164.4334 C.3     1  UNL1        0.0432
      8 C         140.8124  141.1766  165.7622 C.3     1  UNL1        0.0194
      9 C         141.3575  140.5842  167.0279 C.3     1  UNL1        0.0577
     10 C         142.4265  139.5339  166.9647 C.3     1  UNL1        0.0177
     11 C         142.9504  139.0760  165.6359 C.3     1  UNL1        0.0212
     12 C         142.4053  139.6683  164.3702 C.3     1  UNL1        0.0771
     13 N         140.8336  141.0422  168.3567 N.3     1  UNL1       -0.2741
     14 C         139.7676  140.2514  169.0556 C.3     1  UNL1        0.0896
     15 C         141.3756  142.2909  168.9867 C.3     1  UNL1        0.0576
     16 C         140.4387  143.3770  169.4258 C.3     1  UNL1        0.0173
     17 C         142.8545  142.4536  169.1776 C.3     1  UNL1        0.0173
     18 C         140.7911  141.3110  163.1677 C.3     1  UNL1        0.1525
     19 S         140.4141  142.7620  163.1204 S.O2    1  UNL1       -0.0100
     20 O         141.8658  143.1390  163.1119 O.2     1  UNL1       -0.1730
     21 O         138.9623  142.3850  163.1288 O.2     1  UNL1       -0.1730
     22 C         139.2543  144.8218  164.1986 C.3     1  UNL1        0.0271
     23 C         140.0370  144.2132  163.0730 C.3     1  UNL1        0.1509
     24 N         142.9970  136.9915  159.8574 N.am    1  UNL1       -0.2948
     25 C         142.6451  137.4717  158.4806 C.2     1  UNL1        0.2461
     26 O         142.4974  138.9404  158.2135 O.2     1  UNL1       -0.2701
     27 H         143.0940  136.0276  160.0327 H       1  UNL1        0.1501
     28 C         142.4410  136.4833  157.3710 C.ar    1  UNL1        0.0533
     29 C         141.3415  136.6933  156.3724 C.ar    1  UNL1        0.0045
     30 C         141.1373  135.7049  155.2627 C.ar    1  UNL1        0.0001
     31 C         142.0327  134.5065  155.1517 C.ar    1  UNL1        0.0039
     32 C         143.1322  134.2965  156.1502 C.ar    1  UNL1        0.0716
     33 C         143.3363  135.2850  157.2598 C.ar    1  UNL1        0.0084
     34 C         144.0275  133.0982  156.0391 C.3     1  UNL1        0.4186
     35 F         144.9228  131.8998  155.9280 F       1  UNL1       -0.1659
     36 F         144.6082  133.4070  157.3872 F       1  UNL1       -0.1659
     37 F         143.4468  132.7894  154.6909 F       1  UNL1       -0.1659
@<TRIPOS>BOND
     1    22    23    1
     2    23    19    1
     3    19    20    2
     4    19    21    2
     5    19    18    1
     6     7    18    1
     7     7     8    1
     8     8     9    1
     9     9    13    1
    10    13    14    1
    11    13    15    1
    12    15    16    1
    13    15    17    1
    14     9    10    1
    15    10    11    1
    16    11    12    1
    17    12     1    1
    18     1     2    1
    19     2     3    1
    20     3     4    1
    21     4    24    1
    22    24    25   am
    23    25    26    2
    24    25    28    1
    25    28    29   ar
    26    29    30   ar
    27    30    31   ar
    28    31    32   ar
    29    32    34    1
    30    34    35    1
    31    34    36    1
    32    34    37    1
    33    32    33   ar
    34     4     5    1
    35     5     6    2
    36    12     7    1
    37     5     1   am
    38    33    28   ar
    39    24    27    1
@<TRIPOS>MOLECULE
*****
 37 39 0 0 0
SMALL
GASTEIGER

@<TRIPOS>ATOM
      1 N         138.9090  139.1434  163.1991 N.am    1  UNL1       -0.2797
      2 C         139.3994  137.9674  162.4074 C.3     1  UNL1        0.0956
      3 C         138.9425  138.1404  160.9892 C.3     1  UNL1        0.0505
      4 C         138.1696  139.4232  160.9044 C.3     1  UNL1        0.1507
      5 C         138.1490  140.0430  162.2701 C.2     1  UNL1        0.2435
      6 O         137.4849  141.3357  162.6417 O.2     1  UNL1       -0.2731
      7 C         140.3772  140.0875  165.1234 C.3     1  UNL1        0.0432
      8 C         140.6065  140.3225  166.5870 C.3     1  UNL1        0.0194
      9 C         139.5970  139.8483  167.5899 C.3     1  UNL1        0.0577
     10 C         138.3581  139.1391  167.1293 C.3     1  UNL1        0.0177
     11 C         138.1288  138.9042  165.6657 C.3     1  UNL1        0.0212
     12 C         139.1384  139.3784  164.6627 C.3     1  UNL1        0.0771
     13 N         139.8263  140.0833  169.0536 N.3     1  UNL1       -0.2741
     14 C         138.6664  140.0793  170.0046 C.3     1  UNL1        0.0896
     15 C         141.2156  140.3223  169.5662 C.3     1  UNL1        0.0576
     16 C         141.6917  141.7224  169.8178 C.3     1  UNL1        0.0173
     17 C         142.1288  139.1613  169.8271 C.3     1  UNL1        0.0173
     18 C         141.3868  140.5617  164.1204 C.3     1  UNL1        0.1525
     19 S         142.8360  140.2160  164.2941 S.O2    1  UNL1       -0.0100
     20 O         142.5241  138.7736  164.0255 O.2     1  UNL1       -0.1730
     21 O         143.1479  141.6584  164.5626 O.2     1  UNL1       -0.1730
     22 C         145.3435  140.7580  163.8828 C.3     1  UNL1        0.0271
     23 C         144.2853  139.8702  164.4677 C.3     1  UNL1        0.1509
     24 N         137.5298  139.9871  159.6704 N.am    1  UNL1       -0.2948
     25 C         138.2620  141.0012  158.8425 C.2     1  UNL1        0.2461
     26 O         139.6341  141.4515  159.2486 O.2     1  UNL1       -0.2701
     27 H         136.6293  139.6916  159.4039 H       1  UNL1        0.1501
     28 C         137.6222  141.5651  157.6086 C.ar    1  UNL1        0.0533
     29 C         136.5492  140.7926  156.9003 C.ar    1  UNL1        0.0045
     30 C         135.9093  141.3565  155.6663 C.ar    1  UNL1        0.0001
     31 C         136.3426  142.6929  155.1407 C.ar    1  UNL1        0.0039
     32 C         137.4157  143.4655  155.8490 C.ar    1  UNL1        0.0716
     33 C         138.0555  142.9016  157.0830 C.ar    1  UNL1        0.0084
     34 C         137.8490  144.8019  155.3234 C.3     1  UNL1        0.4186
     35 F         138.2823  146.1383  154.7978 F       1  UNL1       -0.1659
     36 F         136.7714  144.7415  154.2817 F       1  UNL1       -0.1659
     37 F         138.9266  144.8622  156.3651 F       1  UNL1       -0.1659
@<TRIPOS>BOND
     1    22    23    1
     2    23    19    1
     3    19    20    2
     4    19    21    2
     5    19    18    1
     6     7    18    1
     7     7     8    1
     8     8     9    1
     9     9    13    1
    10    13    14    1
    11    13    15    1
    12    15    16    1
    13    15    17    1
    14     9    10    1
    15    10    11    1
    16    11    12    1
    17    12     1    1
    18     1     2    1
    19     2     3    1
    20     3     4    1
    21     4    24    1
    22    24    25   am
    23    25    26    2
    24    25    28    1
    25    28    29   ar
    26    29    30   ar
    27    30    31   ar
    28    31    32   ar
    29    32    34    1
    30    34    35    1
    31    34    36    1
    32    34    37    1
    33    32    33   ar
    34     4     5    1
    35     5     6    2
    36    12     7    1
    37     5     1   am
    38    33    28   ar
    39    24    27    1
@<TRIPOS>MOLECULE
*****
 37 39 0 0 0
SMALL
GASTEIGER

@<TRIPOS>ATOM
      1 N         141.5760  142.4270  162.6704 N.am    1  UNL1       -0.2797
      2 C         141.4085  141.2173  161.7994 C.3     1  UNL1        0.0956
      3 C         141.3803  141.6748  160.3712 C.3     1  UNL1        0.0505
      4 C         141.5304  143.1673  160.3594 C.3     1  UNL1        0.1507
      5 C         141.6513  143.6321  161.7804 C.2     1  UNL1        0.2435
      6 O         141.8182  145.0527  162.2320 O.2     1  UNL1       -0.2731
      7 C         140.4832  142.9004  164.9794 C.3     1  UNL1        0.0432
      8 C         140.5616  142.9044  166.4773 C.3     1  UNL1        0.0194
      9 C         141.8113  142.4389  167.1642 C.3     1  UNL1        0.0577
     10 C         142.9825  141.9695  166.3531 C.3     1  UNL1        0.0177
     11 C         142.9040  141.9656  164.8552 C.3     1  UNL1        0.0212
     12 C         141.6544  142.4310  164.1684 C.3     1  UNL1        0.0771
     13 N         141.8897  142.4429  168.6622 N.3     1  UNL1       -0.2741
     14 C         143.2034  142.2026  169.3451 C.3     1  UNL1        0.0896
     15 C         140.6543  142.6872  169.4772 C.3     1  UNL1        0.0576
     16 C         139.7489  141.5438  169.8279 C.3     1  UNL1        0.0173
     17 C         140.3244  144.0748  169.9416 C.3     1  UNL1        0.0173
     18 C         139.2335  143.3658  164.2926 C.3     1  UNL1        0.1525
     19 S         138.2887  142.3654  163.6956 S.O2    1  UNL1       -0.0100
     20 O         138.2403  143.1670  162.4288 O.2     1  UNL1       -0.1730
     21 O         138.3372  141.5637  164.9625 O.2     1  UNL1       -0.1730
     22 C         137.8656  140.2863  162.1961 C.3     1  UNL1        0.0271
     23 C         137.3439  141.3649  163.0986 C.3     1  UNL1        0.1509
     24 N         141.5551  144.0413  159.1406 N.am    1  UNL1       -0.2948
     25 C         140.2995  144.2615  158.3500 C.2     1  UNL1        0.2461
     26 O         139.0192  143.6077  158.7782 O.2     1  UNL1       -0.2701
     27 H         142.3954  144.4704  158.8596 H       1  UNL1        0.1501
     28 C         140.3243  145.1355  157.1312 C.ar    1  UNL1        0.0533
     29 C         141.1037  144.7132  155.9212 C.ar    1  UNL1        0.0045
     30 C         141.1285  145.5873  154.7024 C.ar    1  UNL1        0.0001
     31 C         140.3738  146.8836  154.6937 C.ar    1  UNL1        0.0039
     32 C         139.5944  147.3059  155.9037 C.ar    1  UNL1        0.0716
     33 C         139.5696  146.4318  157.1225 C.ar    1  UNL1        0.0084
     34 C         138.8397  148.6022  155.8950 C.3     1  UNL1        0.4186
     35 F         138.0851  149.8985  155.8862 F       1  UNL1       -0.1659
     36 F         139.2121  148.8093  154.4567 F       1  UNL1       -0.1659
     37 F         138.4673  148.3951  157.3332 F       1  UNL1       -0.1659
@<TRIPOS>BOND
     1    22    23    1
     2    23    19    1
     3    19    20    2
     4    19    21    2
     5    19    18    1
     6     7    18    1
     7     7     8    1
     8     8     9    1
     9     9    13    1
    10    13    14    1
    11    13    15    1
    12    15    16    1
    13    15    17    1
    14     9    10    1
    15    10    11    1
    16    11    12    1
    17    12     1    1
    18     1     2    1
    19     2     3    1
    20     3     4    1
    21     4    24    1
    22    24    25   am
    23    25    26    2
    24    25    28    1
    25    28    29   ar
    26    29    30   ar
    27    30    31   ar
    28    31    32   ar
    29    32    34    1
    30    34    35    1
    31    34    36    1
    32    34    37    1
    33    32    33   ar
    34     4     5    1
    35     5     6    2
    36    12     7    1
    37     5     1   am
    38    33    28   ar
    39    24    27    1
@<TRIPOS>MOLECULE
*****
 37 39 0 0 0
SMALL
GASTEIGER

@<TRIPOS>ATOM
      1 N         139.2165  140.0445  163.9333 N.am    1  UNL1       -0.2797
      2 C         137.9205  140.3714  163.2526 C.3     1  UNL1        0.0956
      3 C         137.9441  139.7496  161.8877 C.3     1  UNL1        0.0505
      4 C         139.2547  139.0383  161.7249 C.3     1  UNL1        0.1507
      5 C         140.0411  139.2207  162.9892 C.2     1  UNL1        0.2435
      6 O         141.4115  138.6749  163.2615 O.2     1  UNL1       -0.2731
      7 C         140.4514  141.6988  165.5108 C.3     1  UNL1        0.0432
      8 C         140.8524  142.1216  166.8930 C.3     1  UNL1        0.0194
      9 C         140.4197  141.3128  168.0798 C.3     1  UNL1        0.0577
     10 C         139.5860  140.0812  167.8845 C.3     1  UNL1        0.0177
     11 C         139.1849  139.6585  166.5024 C.3     1  UNL1        0.0212
     12 C         139.6176  140.4673  165.3155 C.3     1  UNL1        0.0771
     13 N         140.8208  141.7355  169.4621 N.3     1  UNL1       -0.2741
     14 C         139.8295  142.4232  170.3533 C.3     1  UNL1        0.0896
     15 C         142.2132  141.4707  169.9529 C.3     1  UNL1        0.0576
     16 C         142.5983  140.0949  170.4101 C.3     1  UNL1        0.0173
     17 C         143.2206  142.5816  169.9867 C.3     1  UNL1        0.0173
     18 C         140.8841  142.5076  164.3240 C.3     1  UNL1        0.1525
     19 S         142.2976  142.9998  164.2268 S.O2    1  UNL1       -0.0100
     20 O         141.8192  144.4098  164.4083 O.2     1  UNL1       -0.1730
     21 O         142.7761  141.5899  164.0453 O.2     1  UNL1       -0.1730
     22 C         144.5333  143.6623  165.3728 C.3     1  UNL1        0.0271
     23 C         143.7113  143.4921  164.1297 C.3     1  UNL1        0.1509
     24 N         139.7006  138.2783  160.5111 N.am    1  UNL1       -0.2948
     25 C         140.5970  138.9341  159.5030 C.2     1  UNL1        0.2461
     26 O         141.0476  140.3500  159.7087 O.2     1  UNL1       -0.2701
     27 H         139.4049  137.3490  160.3760 H       1  UNL1        0.1501
     28 C         141.0429  138.1741  158.2891 C.ar    1  UNL1        0.0533
     29 C         142.4438  137.6440  158.2089 C.ar    1  UNL1        0.0045
     30 C         142.8898  136.8839  156.9950 C.ar    1  UNL1        0.0001
     31 C         141.9347  136.6540  155.8614 C.ar    1  UNL1        0.0039
     32 C         140.5338  137.1841  155.9416 C.ar    1  UNL1        0.0716
     33 C         140.0879  137.9441  157.1555 C.ar    1  UNL1        0.0084
     34 C         139.5788  136.9541  154.8080 C.3     1  UNL1        0.4186
     35 F         138.6238  136.7241  153.6744 F       1  UNL1       -0.1659
     36 F         138.4344  136.9280  155.7774 F       1  UNL1       -0.1659
     37 F         140.7232  136.9802  153.8386 F       1  UNL1       -0.1659
@<TRIPOS>BOND
     1    22    23    1
     2    23    19    1
     3    19    20    2
     4    19    21    2
     5    19    18    1
     6     7    18    1
     7     7     8    1
     8     8     9    1
     9     9    13    1
    10    13    14    1
    11    13    15    1
    12    15    16    1
    13    15    17    1
    14     9    10    1
    15    10    11    1
    16    11    12    1
    17    12     1    1
    18     1     2    1
    19     2     3    1
    20     3     4    1
    21     4    24    1
    22    24    25   am
    23    25    26    2
    24    25    28    1
    25    28    29   ar
    26    29    30   ar
    27    30    31   ar
    28    31    32   ar
    29    32    34    1
    30    34    35    1
    31    34    36    1
    32    34    37    1
    33    32    33   ar
    34     4     5    1
    35     5     6    2
    36    12     7    1
    37     5     1   am
    38    33    28   ar
    39    24    27    1
@<TRIPOS>MOLECULE
*****
 37 39 0 0 0
SMALL
GASTEIGER

@<TRIPOS>ATOM
      1 N         138.9557  139.2245  163.0516 N.am    1  UNL1       -0.2797
      2 C         139.3097  137.9745  162.3018 C.3     1  UNL1        0.0956
      3 C         138.8573  138.1421  160.8815 C.3     1  UNL1        0.0505
      4 C         138.2237  139.4957  160.7535 C.3     1  UNL1        0.1507
      5 C         138.2845  140.1646  162.0947 C.2     1  UNL1        0.2435
      6 O         137.7653  141.5334  162.4216 O.2     1  UNL1       -0.2731
      7 C         140.3666  140.3749  164.9052 C.3     1  UNL1        0.0432
      8 C         140.6363  140.6385  166.3570 C.3     1  UNL1        0.0194
      9 C         139.7650  140.0152  167.4070 C.3     1  UNL1        0.0577
     10 C         138.6240  139.1284  167.0051 C.3     1  UNL1        0.0177
     11 C         138.3542  138.8648  165.5534 C.3     1  UNL1        0.0212
     12 C         139.2255  139.4881  164.5034 C.3     1  UNL1        0.0771
     13 N         140.0349  140.2788  168.8588 N.3     1  UNL1       -0.2741
     14 C         138.8966  140.3426  169.8337 C.3     1  UNL1        0.0896
     15 C         141.4429  140.4786  169.3358 C.3     1  UNL1        0.0576
     16 C         141.9722  141.8656  169.5508 C.3     1  UNL1        0.0173
     17 C         142.3216  139.2915  169.5977 C.3     1  UNL1        0.0173
     18 C         141.2379  140.9982  163.8553 C.3     1  UNL1        0.1525
     19 S         142.7094  140.7083  163.8328 S.O2    1  UNL1       -0.0100
     20 O         142.9917  142.1051  164.3009 O.2     1  UNL1       -0.1730
     21 O         142.4271  139.3115  163.3648 O.2     1  UNL1       -0.1730
     22 C         144.7445  139.3312  164.6766 C.3     1  UNL1        0.0271
     23 C         144.1810  140.4185  163.8104 C.3     1  UNL1        0.1509
     24 N         137.6330  140.0781  159.5037 N.am    1  UNL1       -0.2948
     25 C         138.4143  141.0733  158.6980 C.2     1  UNL1        0.2461
     26 O         139.7863  141.4861  159.1421 O.2     1  UNL1       -0.2701
     27 H         136.7325  139.8072  159.2123 H       1  UNL1        0.1501
     28 C         137.8236  141.6557  157.4483 C.ar    1  UNL1        0.0533
     29 C         138.5387  142.7570  156.7233 C.ar    1  UNL1        0.0045
     30 C         137.9480  143.3394  155.4735 C.ar    1  UNL1        0.0001
     31 C         136.6421  142.8204  154.9488 C.ar    1  UNL1        0.0039
     32 C         135.9270  141.7191  155.6738 C.ar    1  UNL1        0.0716
     33 C         136.5177  141.1367  156.9235 C.ar    1  UNL1        0.0084
     34 C         134.6211  141.2001  155.1490 C.3     1  UNL1        0.4186
     35 F         133.3152  140.6811  154.6242 F       1  UNL1       -0.1659
     36 F         134.9341  141.7766  153.8000 F       1  UNL1       -0.1659
     37 F         134.3081  140.6236  156.4980 F       1  UNL1       -0.1659
@<TRIPOS>BOND
     1    22    23    1
     2    23    19    1
     3    19    20    2
     4    19    21    2
     5    19    18    1
     6     7    18    1
     7     7     8    1
     8     8     9    1
     9     9    13    1
    10    13    14    1
    11    13    15    1
    12    15    16    1
    13    15    17    1
    14     9    10    1
    15    10    11    1
    16    11    12    1
    17    12     1    1
    18     1     2    1
    19     2     3    1
    20     3     4    1
    21     4    24    1
    22    24    25   am
    23    25    26    2
    24    25    28    1
    25    28    29   ar
    26    29    30   ar
    27    30    31   ar
    28    31    32   ar
    29    32    34    1
    30    34    35    1
    31    34    36    1
    32    34    37    1
    33    32    33   ar
    34     4     5    1
    35     5     6    2
    36    12     7    1
    37     5     1   am
    38    33    28   ar
    39    24    27    1
@<TRIPOS>MOLECULE
*****
 37 39 0 0 0
SMALL
GASTEIGER

@<TRIPOS>ATOM
      1 N         142.1746  140.6020  158.5786 N.am    1  UNL1       -0.2797
      2 C         142.9861  140.8626  157.3443 C.3     1  UNL1        0.0956
      3 C         143.4018  139.5386  156.7749 C.3     1  UNL1        0.0505
      4 C         142.8471  138.4597  157.6572 C.3     1  UNL1        0.1507
      5 C         142.0887  139.1170  158.7720 C.2     1  UNL1        0.2435
      6 O         141.3705  138.4129  159.8848 O.2     1  UNL1       -0.2731
      7 C         142.3597  142.2560  160.5737 C.3     1  UNL1        0.0432
      8 C         141.7424  143.2976  161.4591 C.3     1  UNL1        0.0194
      9 C         140.3227  143.7267  161.2351 C.3     1  UNL1        0.0577
     10 C         139.5203  143.1143  160.1256 C.3     1  UNL1        0.0177
     11 C         140.1376  142.0728  159.2401 C.3     1  UNL1        0.0212
     12 C         141.5573  141.6436  159.4642 C.3     1  UNL1        0.0771
     13 N         139.7054  144.7683  162.1206 N.3     1  UNL1       -0.2741
     14 C         139.8408  146.2218  161.7757 C.3     1  UNL1        0.0896
     15 C         138.9528  144.3564  163.3510 C.3     1  UNL1        0.0576
     16 C         139.4978  144.6859  164.7091 C.3     1  UNL1        0.0173
     17 C         137.6551  143.6149  163.2233 C.3     1  UNL1        0.0173
     18 C         143.7795  141.8269  160.7977 C.3     1  UNL1        0.1525
     19 S         144.2077  141.3256  162.1450 S.O2    1  UNL1       -0.0100
     20 O         143.3184  140.1287  161.9823 O.2     1  UNL1       -0.1730
     21 O         145.0971  142.5225  162.3076 O.2     1  UNL1       -0.1730
     22 C         143.9673  141.3401  164.7319 C.3     1  UNL1        0.0271
     23 C         144.6360  140.8242  163.4923 C.3     1  UNL1        0.1509
     24 N         143.0205  136.9830  157.4595 N.am    1  UNL1       -0.2948
     25 C         142.1374  136.2465  156.4963 C.2     1  UNL1        0.2461
     26 O         141.0810  136.9868  155.7308 O.2     1  UNL1       -0.2701
     27 H         143.7139  136.4971  157.9619 H       1  UNL1        0.1501
     28 C         142.3108  134.7698  156.2986 C.ar    1  UNL1        0.0533
     29 C         141.4415  134.0369  155.3202 C.ar    1  UNL1        0.0045
     30 C         141.6149  132.5601  155.1224 C.ar    1  UNL1        0.0001
     31 C         142.6576  131.8163  155.9031 C.ar    1  UNL1        0.0039
     32 C         143.5269  132.5491  156.8815 C.ar    1  UNL1        0.0716
     33 C         143.3535  134.0258  157.0792 C.ar    1  UNL1        0.0084
     34 C         144.5696  131.8052  157.6621 C.3     1  UNL1        0.4186
     35 F         145.6123  131.0613  158.4428 F       1  UNL1       -0.1659
     36 F         143.9997  130.5031  157.1826 F       1  UNL1       -0.1659
     37 F         145.1396  133.1072  158.1416 F       1  UNL1       -0.1659
@<TRIPOS>BOND
     1    22    23    1
     2    23    19    1
     3    19    20    2
     4    19    21    2
     5    19    18    1
     6     7    18    1
     7     7     8    1
     8     8     9    1
     9     9    13    1
    10    13    14    1
    11    13    15    1
    12    15    16    1
    13    15    17    1
    14     9    10    1
    15    10    11    1
    16    11    12    1
    17    12     1    1
    18     1     2    1
    19     2     3    1
    20     3     4    1
    21     4    24    1
    22    24    25   am
    23    25    26    2
    24    25    28    1
    25    28    29   ar
    26    29    30   ar
    27    30    31   ar
    28    31    32   ar
    29    32    34    1
    30    34    35    1
    31    34    36    1
    32    34    37    1
    33    32    33   ar
    34     4     5    1
    35     5     6    2
    36    12     7    1
    37     5     1   am
    38    33    28   ar
    39    24    27    1
@<TRIPOS>MOLECULE
*****
 37 39 0 0 0
SMALL
GASTEIGER

@<TRIPOS>ATOM
      1 N         142.7366  141.0182  162.5237 N.am    1  UNL1       -0.2797
      2 C         142.5033  142.0124  161.4250 C.3     1  UNL1        0.0956
      3 C         142.7412  141.3205  160.1155 C.3     1  UNL1        0.0505
      4 C         143.1215  139.8986  160.4049 C.3     1  UNL1        0.1507
      5 C         143.1187  139.7118  161.8932 C.2     1  UNL1        0.2435
      6 O         143.4413  138.4416  162.6230 O.2     1  UNL1       -0.2731
      7 C         141.4156  140.7783  164.7479 C.3     1  UNL1        0.0432
      8 C         141.2891  141.0438  166.2188 C.3     1  UNL1        0.0194
      9 C         142.3572  141.8149  166.9363 C.3     1  UNL1        0.0577
     10 C         143.5517  142.3203  166.1829 C.3     1  UNL1        0.0177
     11 C         143.6781  142.0548  164.7121 C.3     1  UNL1        0.0212
     12 C         142.6101  141.2838  163.9946 C.3     1  UNL1        0.0771
     13 N         142.2306  142.0804  168.4072 N.3     1  UNL1       -0.2741
     14 C         143.4602  142.1693  169.2617 C.3     1  UNL1        0.0896
     15 C         140.8746  142.2570  169.0235 C.3     1  UNL1        0.0576
     16 C         140.0292  141.0571  169.3329 C.3     1  UNL1        0.0173
     17 C         140.3638  143.6336  169.3305 C.3     1  UNL1        0.0173
     18 C         140.3475  140.0073  164.0304 C.3     1  UNL1        0.1525
     19 S         139.4714  139.0554  164.7895 S.O2    1  UNL1       -0.0100
     20 O         138.3426  140.0408  164.7225 O.2     1  UNL1       -0.1730
     21 O         140.6003  138.0699  164.8565 O.2     1  UNL1       -0.1730
     22 C         137.8384  138.5788  166.7533 C.3     1  UNL1        0.0271
     23 C         138.5953  138.1034  165.5487 C.3     1  UNL1        0.1509
     24 N         143.4474  138.8480  159.3851 N.am    1  UNL1       -0.2948
     25 C         142.4286  138.4621  158.3540 C.2     1  UNL1        0.2461
     26 O         141.0840  139.1268  158.3427 O.2     1  UNL1       -0.2701
     27 H         144.3299  138.4118  159.3925 H       1  UNL1        0.1501
     28 C         142.7545  137.4116  157.3342 C.ar    1  UNL1        0.0533
     29 C         142.6593  137.7309  155.8717 C.ar    1  UNL1        0.0045
     30 C         142.9852  136.6803  154.8517 C.ar    1  UNL1        0.0001
     31 C         143.4063  135.3104  155.2945 C.ar    1  UNL1        0.0039
     32 C         143.5016  134.9911  156.7570 C.ar    1  UNL1        0.0716
     33 C         143.1757  136.0416  157.7768 C.ar    1  UNL1        0.0084
     34 C         143.9228  133.6211  157.1997 C.3     1  UNL1        0.4186
     35 F         144.3439  132.2512  157.6423 F       1  UNL1       -0.1659
     36 F         143.7173  134.0204  158.6309 F       1  UNL1       -0.1659
     37 F         144.1282  133.2218  155.7685 F       1  UNL1       -0.1659
@<TRIPOS>BOND
     1    22    23    1
     2    23    19    1
     3    19    20    2
     4    19    21    2
     5    19    18    1
     6     7    18    1
     7     7     8    1
     8     8     9    1
     9     9    13    1
    10    13    14    1
    11    13    15    1
    12    15    16    1
    13    15    17    1
    14     9    10    1
    15    10    11    1
    16    11    12    1
    17    12     1    1
    18     1     2    1
    19     2     3    1
    20     3     4    1
    21     4    24    1
    22    24    25   am
    23    25    26    2
    24    25    28    1
    25    28    29   ar
    26    29    30   ar
    27    30    31   ar
    28    31    32   ar
    29    32    34    1
    30    34    35    1
    31    34    36    1
    32    34    37    1
    33    32    33   ar
    34     4     5    1
    35     5     6    2
    36    12     7    1
    37     5     1   am
    38    33    28   ar
    39    24    27    1
@<TRIPOS>MOLECULE
*****
 37 39 0 0 0
SMALL
GASTEIGER

@<TRIPOS>ATOM
      1 N         139.6188  143.9506  161.7991 N.am    1  UNL1       -0.2797
      2 C         138.4407  144.4489  162.5826 C.3     1  UNL1        0.0956
      3 C         138.7169  144.2097  164.0374 C.3     1  UNL1        0.0505
      4 C         140.0657  143.5635  164.1531 C.3     1  UNL1        0.1507
      5 C         140.6230  143.4034  162.7698 C.2     1  UNL1        0.2435
      6 O         141.9514  142.8017  162.4187 O.2     1  UNL1       -0.2731
      7 C         139.2275  142.8714  159.4684 C.3     1  UNL1        0.0432
      8 C         139.3754  142.9130  157.9763 C.3     1  UNL1        0.0194
      9 C         140.0625  144.0752  157.3228 C.3     1  UNL1        0.0577
     10 C         140.6017  145.1959  158.1614 C.3     1  UNL1        0.0177
     11 C         140.4538  145.1543  159.6535 C.3     1  UNL1        0.0212
     12 C         139.7667  143.9921  160.3070 C.3     1  UNL1        0.0771
     13 N         140.2104  144.1167  155.8306 N.3     1  UNL1       -0.2741
     14 C         141.5437  143.8409  155.2012 C.3     1  UNL1        0.0896
     15 C         139.0250  144.4341  154.9680 C.3     1  UNL1        0.0576
     16 C         138.6878  143.5519  153.8026 C.3     1  UNL1        0.0173
     17 C         138.1768  145.6336  155.2707 C.3     1  UNL1        0.0173
     18 C         138.5403  141.7092  160.1219 C.3     1  UNL1        0.1525
     19 S         138.9730  140.3080  159.8064 S.O2    1  UNL1       -0.0100
     20 O         140.2909  140.5644  160.4752 O.2     1  UNL1       -0.1730
     21 O         137.6551  140.0517  159.1375 O.2     1  UNL1       -0.1730
     22 C         139.8966  138.5652  158.1153 C.3     1  UNL1        0.0271
     23 C         139.4057  138.9068  159.4909 C.3     1  UNL1        0.1509
     24 N         140.7388  143.1501  165.4282 N.am    1  UNL1       -0.2948
     25 C         140.9315  141.6949  165.7369 C.2     1  UNL1        0.2461
     26 O         140.4511  140.6532  164.7705 O.2     1  UNL1       -0.2701
     27 H         141.0541  143.8339  166.0625 H       1  UNL1        0.1501
     28 C         141.6046  141.2815  167.0121 C.ar    1  UNL1        0.0533
     29 C         141.7950  139.8263  167.3220 C.ar    1  UNL1        0.0045
     30 C         142.4682  139.4128  168.5972 C.ar    1  UNL1        0.0001
     31 C         142.9509  140.4547  169.5623 C.ar    1  UNL1        0.0039
     32 C         142.7605  141.9099  169.2524 C.ar    1  UNL1        0.0716
     33 C         142.0874  142.3234  167.9773 C.ar    1  UNL1        0.0084
     34 C         143.2433  142.9518  170.2176 C.3     1  UNL1        0.4186
     35 F         143.7260  143.9936  171.1828 F       1  UNL1       -0.1659
     36 F         144.6350  142.4016  170.1153 F       1  UNL1       -0.1659
     37 F         141.8515  143.5019  170.3199 F       1  UNL1       -0.1659
@<TRIPOS>BOND
     1    22    23    1
     2    23    19    1
     3    19    20    2
     4    19    21    2
     5    19    18    1
     6     7    18    1
     7     7     8    1
     8     8     9    1
     9     9    13    1
    10    13    14    1
    11    13    15    1
    12    15    16    1
    13    15    17    1
    14     9    10    1
    15    10    11    1
    16    11    12    1
    17    12     1    1
    18     1     2    1
    19     2     3    1
    20     3     4    1
    21     4    24    1
    22    24    25   am
    23    25    26    2
    24    25    28    1
    25    28    29   ar
    26    29    30   ar
    27    30    31   ar
    28    31    32   ar
    29    32    34    1
    30    34    35    1
    31    34    36    1
    32    34    37    1
    33    32    33   ar
    34     4     5    1
    35     5     6    2
    36    12     7    1
    37     5     1   am
    38    33    28   ar
    39    24    27    1
@<TRIPOS>MOLECULE
*****
 37 39 0 0 0
SMALL
GASTEIGER

@<TRIPOS>ATOM
      1 N         139.3514  139.7887  163.1463 N.am    1  UNL1       -0.2797
      2 C         138.0859  139.9342  162.3543 C.3     1  UNL1        0.0956
      3 C         138.3533  139.4502  160.9600 C.3     1  UNL1        0.0505
      4 C         139.7842  139.0054  160.8902 C.3     1  UNL1        0.1507
      5 C         140.4010  139.2146  162.2414 C.2     1  UNL1        0.2435
      6 O         141.8186  138.9042  162.6211 O.2     1  UNL1       -0.2731
      7 C         140.1563  141.4678  164.9581 C.3     1  UNL1        0.0432
      8 C         140.3400  141.8322  166.4015 C.3     1  UNL1        0.0194
      9 C         139.9025  140.8820  167.4765 C.3     1  UNL1        0.0577
     10 C         139.2813  139.5673  167.1081 C.3     1  UNL1        0.0177
     11 C         139.0976  139.2029  165.6647 C.3     1  UNL1        0.0212
     12 C         139.5351  140.1532  164.5897 C.3     1  UNL1        0.0771
     13 N         140.0862  141.2465  168.9200 N.3     1  UNL1       -0.2741
     14 C         139.3807  140.4630  169.9870 C.3     1  UNL1        0.0896
     15 C         140.9753  142.3944  169.2963 C.3     1  UNL1        0.0576
     16 C         140.3755  143.7227  169.6514 C.3     1  UNL1        0.0173
     17 C         142.4643  142.2141  169.3178 C.3     1  UNL1        0.0173
     18 C         140.5938  142.4181  163.8831 C.3     1  UNL1        0.1525
     19 S         141.8728  143.1865  164.0364 S.O2    1  UNL1       -0.0100
     20 O         142.6563  141.9273  163.8118 O.2     1  UNL1       -0.1730
     21 O         141.0894  144.4457  164.2610 O.2     1  UNL1       -0.1730
     22 C         143.6001  144.8892  163.1052 C.3     1  UNL1        0.0271
     23 C         143.1520  143.9549  164.1896 C.3     1  UNL1        0.1509
     24 N         140.4767  138.4491  159.6815 N.am    1  UNL1       -0.2948
     25 C         141.4997  139.2733  158.9576 C.2     1  UNL1        0.2461
     26 O         141.8303  140.6538  159.4423 O.2     1  UNL1       -0.2701
     27 H         140.2597  137.5430  159.3633 H       1  UNL1        0.1501
     28 C         142.1921  138.7170  157.7488 C.ar    1  UNL1        0.0533
     29 C         142.5013  139.6102  156.5841 C.ar    1  UNL1        0.0045
     30 C         143.1937  139.0539  155.3753 C.ar    1  UNL1        0.0001
     31 C         143.5770  137.6044  155.3314 C.ar    1  UNL1        0.0039
     32 C         143.2679  136.7111  156.4961 C.ar    1  UNL1        0.0716
     33 C         142.5754  137.2674  157.7048 C.ar    1  UNL1        0.0084
     34 C         143.6512  135.2616  156.4520 C.3     1  UNL1        0.4186
     35 F         144.0345  133.8120  156.4080 F       1  UNL1       -0.1659
     36 F         144.0078  135.4000  155.0016 F       1  UNL1       -0.1659
     37 F         143.2945  135.1232  157.9024 F       1  UNL1       -0.1659
@<TRIPOS>BOND
     1    22    23    1
     2    23    19    1
     3    19    20    2
     4    19    21    2
     5    19    18    1
     6     7    18    1
     7     7     8    1
     8     8     9    1
     9     9    13    1
    10    13    14    1
    11    13    15    1
    12    15    16    1
    13    15    17    1
    14     9    10    1
    15    10    11    1
    16    11    12    1
    17    12     1    1
    18     1     2    1
    19     2     3    1
    20     3     4    1
    21     4    24    1
    22    24    25   am
    23    25    26    2
    24    25    28    1
    25    28    29   ar
    26    29    30   ar
    27    30    31   ar
    28    31    32   ar
    29    32    34    1
    30    34    35    1
    31    34    36    1
    32    34    37    1
    33    32    33   ar
    34     4     5    1
    35     5     6    2
    36    12     7    1
    37     5     1   am
    38    33    28   ar
    39    24    27    1
