@<TRIPOS>MOLECULE
*****
 41 46 0 0 0
SMALL
GASTEIGER

@<TRIPOS>ATOM
      1 C         139.2969  137.9160  164.7754 C.3     1  UNL1        0.1272
      2 C         138.8030  138.0921  163.3700 C.3     1  UNL1        0.0342
      3 C         139.7431  137.9067  162.2159 C.3     1  UNL1        0.0197
      4 C         141.1771  137.5452  162.4673 C.3     1  UNL1        0.0701
      5 C         141.6709  137.3691  163.8726 C.3     1  UNL1        0.0197
      6 C         140.7308  137.5545  165.0267 C.3     1  UNL1        0.0342
      7 C         140.6994  137.6363  163.1317 C.3     1  UNL1        0.1566
      8 O         139.8493  137.8040  164.1753 O.3     1  UNL1       -0.3518
      9 C         138.3568  138.1014  165.9295 C.2     1  UNL1        0.1032
     10 N         137.7017  136.9095  166.5621 N.2     1  UNL1       -0.0926
     11 O         137.0724  136.9116  167.3187 O.2     1  UNL1       -0.4092
     12 H         136.7200  136.1039  167.6372 H       1  UNL1        0.3278
     13 C         138.0719  139.4787  166.4510 C.3     1  UNL1        0.0772
     14 C         138.6773  142.8293  163.5087 C.ar    1  UNL1        0.2250
     15 C         139.8001  143.8046  163.7033 C.ar    1  UNL1        0.0593
     16 C         140.7212  143.6631  164.8787 C.ar    1  UNL1        0.0254
     17 C         140.5194  142.5462  165.8595 C.ar    1  UNL1        0.0990
     18 N         141.4405  142.4048  167.0349 N.ar    1  UNL1       -0.2400
     19 C         141.2387  141.2879  168.0157 C.ar    1  UNL1        0.1281
     20 C         140.1159  140.3125  167.8211 C.ar    1  UNL1        0.1570
     21 F         140.0789  139.6237  168.5230 F       1  UNL1       -0.2028
     22 C         139.1948  140.4540  166.6456 C.ar    1  UNL1        0.0318
     23 C         139.3966  141.5709  165.6649 C.ar    1  UNL1        0.1005
     24 N         138.4755  141.7124  164.4894 N.ar    1  UNL1       -0.2104
     25 C         138.2082  142.5384  160.9699 C.3     1  UNL1        0.2542
     26 O         137.7562  142.9707  162.3333 O.3     1  UNL1       -0.4561
     27 N         142.1172  137.3598  161.3132 N.3     1  UNL1       -0.2926
     28 H         141.5908  137.5767  160.4669 H       1  UNL1        0.1236
     29 C         143.3891  138.1523  161.2472 C.3     1  UNL1        0.1152
     30 C         143.3747  139.6205  161.5543 C.ar    1  UNL1        0.0765
     31 C         142.8119  140.5898  160.5574 C.ar    1  UNL1        0.0193
     32 C         142.7976  142.0579  160.8645 C.ar    1  UNL1        0.0411
     33 C         143.3461  142.5568  162.1685 C.ar    1  UNL1        0.1708
     34 C         143.9088  141.5875  163.1653 C.ar    1  UNL1        0.1682
     35 N         143.9232  140.1193  162.8582 N.ar    1  UNL1       -0.2304
     36 N         144.4573  142.0863  164.4694 N.am    1  UNL1       -0.2639
     37 C         144.4430  143.5544  164.7765 C.2     1  UNL1        0.2718
     38 O         144.9914  144.0533  166.0804 O.2     1  UNL1       -0.2707
     39 C         143.8802  144.5238  163.7796 C.3     1  UNL1        0.2898
     40 O         143.3318  144.0249  162.4756 O.3     1  UNL1       -0.4628
     41 H         144.8267  141.4501  165.1236 H       1  UNL1        0.1565
@<TRIPOS>BOND
     1    25    26    1
     2    26    14    1
     3    14    15   ar
     4    15    16   ar
     5    16    17   ar
     6    17    18   ar
     7    18    19   ar
     8    19    20   ar
     9    20    21    1
    10    20    22   ar
    11    22    13    1
    12    13     9    1
    13     9    10    2
    14    10    11    1
    15     9     1    1
    16     1     2    1
    17     2     3    1
    18     3     4    1
    19     4    27    1
    20    27    29    1
    21    29    30    1
    22    30    31   ar
    23    31    32   ar
    24    32    33   ar
    25    33    34   ar
    26    34    35   ar
    27    34    36    1
    28    36    37   am
    29    37    38    2
    30    37    39    1
    31    39    40    1
    32     4     5    1
    33     5     6    1
    34     4     7    1
    35     7     8    1
    36    22    23   ar
    37    23    24   ar
    38    24    14   ar
    39    23    17   ar
    40     6     1    1
    41     8     1    1
    42    35    30   ar
    43    40    33    1
    44    11    12    1
    45    27    28    1
    46    36    41    1
@<TRIPOS>MOLECULE
*****
 41 46 0 0 0
SMALL
GASTEIGER

@<TRIPOS>ATOM
      1 C         139.3723  137.9175  164.7217 C.3     1  UNL1        0.1272
      2 C         138.8313  138.0007  163.3251 C.3     1  UNL1        0.0342
      3 C         139.7470  137.8051  162.1532 C.3     1  UNL1        0.0197
      4 C         141.2037  137.5263  162.3780 C.3     1  UNL1        0.0701
      5 C         141.7446  137.4432  163.7745 C.3     1  UNL1        0.0197
      6 C         140.8290  137.6388  164.9464 C.3     1  UNL1        0.0342
      7 C         140.7408  137.6265  163.0514 C.3     1  UNL1        0.1566
      8 O         139.9128  137.8034  164.1111 O.3     1  UNL1       -0.3518
      9 C         138.4567  138.1132  165.8936 C.2     1  UNL1        0.1032
     10 N         137.7329  136.9395  166.4840 N.2     1  UNL1       -0.0926
     11 O         137.1120  136.9494  167.2475 O.2     1  UNL1       -0.4092
     12 H         136.7120  136.1529  167.5364 H       1  UNL1        0.3278
     13 C         138.2648  139.4825  166.4751 C.3     1  UNL1        0.0772
     14 C         142.3554  140.7152  167.8884 C.ar    1  UNL1        0.2250
     15 C         143.0393  141.8966  167.2666 C.ar    1  UNL1        0.0593
     16 C         142.3597  142.6671  166.1737 C.ar    1  UNL1        0.0254
     17 C         140.9961  142.2562  165.7026 C.ar    1  UNL1        0.0990
     18 N         140.3165  143.0267  164.6098 N.ar    1  UNL1       -0.2400
     19 C         138.9529  142.6159  164.1386 C.ar    1  UNL1        0.1281
     20 C         138.2690  141.4345  164.7604 C.ar    1  UNL1        0.1570
     21 F         137.3813  141.2570  164.3745 F       1  UNL1       -0.2028
     22 C         138.9487  140.6639  165.8533 C.ar    1  UNL1        0.0318
     23 C         140.3122  141.0748  166.3244 C.ar    1  UNL1        0.1005
     24 N         140.9919  140.3043  167.4173 N.ar    1  UNL1       -0.2104
     25 C         142.2184  139.1653  169.9691 C.3     1  UNL1        0.2542
     26 O         143.0351  139.9447  168.9812 O.3     1  UNL1       -0.4561
     27 N         142.1193  137.3307  161.2061 N.3     1  UNL1       -0.2926
     28 H         141.6415  136.7017  160.5608 H       1  UNL1        0.1236
     29 C         142.5721  138.5136  160.4024 C.3     1  UNL1        0.1152
     30 C         142.9538  139.7886  161.0942 C.ar    1  UNL1        0.0765
     31 C         144.2619  139.8844  161.8221 C.ar    1  UNL1        0.0193
     32 C         144.6436  141.1594  162.5139 C.ar    1  UNL1        0.0411
     33 C         143.7172  142.3387  162.4778 C.ar    1  UNL1        0.1708
     34 C         142.4092  142.2429  161.7499 C.ar    1  UNL1        0.1682
     35 N         142.0275  140.9679  161.0581 N.ar    1  UNL1       -0.2304
     36 N         141.4828  143.4222  161.7138 N.am    1  UNL1       -0.2639
     37 C         141.8645  144.6972  162.4056 C.2     1  UNL1        0.2718
     38 O         140.9383  145.8764  162.3695 O.2     1  UNL1       -0.2707
     39 C         143.1726  144.7929  163.1335 C.3     1  UNL1        0.2898
     40 O         144.0989  143.6137  163.1696 O.3     1  UNL1       -0.4628
     41 H         140.6243  143.3593  161.2360 H       1  UNL1        0.1565
@<TRIPOS>BOND
     1    25    26    1
     2    26    14    1
     3    14    15   ar
     4    15    16   ar
     5    16    17   ar
     6    17    18   ar
     7    18    19   ar
     8    19    20   ar
     9    20    21    1
    10    20    22   ar
    11    22    13    1
    12    13     9    1
    13     9    10    2
    14    10    11    1
    15     9     1    1
    16     1     2    1
    17     2     3    1
    18     3     4    1
    19     4    27    1
    20    27    29    1
    21    29    30    1
    22    30    31   ar
    23    31    32   ar
    24    32    33   ar
    25    33    34   ar
    26    34    35   ar
    27    34    36    1
    28    36    37   am
    29    37    38    2
    30    37    39    1
    31    39    40    1
    32     4     5    1
    33     5     6    1
    34     4     7    1
    35     7     8    1
    36    22    23   ar
    37    23    24   ar
    38    24    14   ar
    39    23    17   ar
    40     6     1    1
    41     8     1    1
    42    35    30   ar
    43    40    33    1
    44    11    12    1
    45    27    28    1
    46    36    41    1
@<TRIPOS>MOLECULE
*****
 41 46 0 0 0
SMALL
GASTEIGER

@<TRIPOS>ATOM
      1 C         140.2016  140.0376  166.4529 C.3     1  UNL1        0.1272
      2 C         139.9296  141.5093  166.3524 C.3     1  UNL1        0.0342
      3 C         141.0557  142.4910  166.4872 C.3     1  UNL1        0.0197
      4 C         142.4538  142.0010  166.7225 C.3     1  UNL1        0.0701
      5 C         142.7257  140.5293  166.8230 C.3     1  UNL1        0.0197
      6 C         141.5996  139.5476  166.6882 C.3     1  UNL1        0.0342
      7 C         141.8692  141.4251  166.6552 C.3     1  UNL1        0.1566
      8 O         140.8509  140.5374  166.5333 O.3     1  UNL1       -0.3518
      9 C         139.0755  139.0559  166.3181 C.2     1  UNL1        0.1032
     10 N         138.1688  138.7900  167.4831 N.2     1  UNL1       -0.0926
     11 O         137.4038  138.1715  167.5092 O.2     1  UNL1       -0.4092
     12 H         136.9008  138.0812  168.2946 H       1  UNL1        0.3278
     13 C         138.8560  138.3401  165.0183 C.3     1  UNL1        0.0772
     14 C         138.5025  141.8436  162.2164 C.ar    1  UNL1        0.2250
     15 C         139.4842  142.0086  161.0943 C.ar    1  UNL1        0.0593
     16 C         140.5838  141.0058  160.9062 C.ar    1  UNL1        0.0254
     17 C         140.7016  139.8379  161.8402 C.ar    1  UNL1        0.0990
     18 N         141.8012  138.8352  161.6521 N.ar    1  UNL1       -0.2400
     19 C         141.9190  137.6673  162.5861 C.ar    1  UNL1        0.1281
     20 C         140.9373  137.5023  163.7081 C.ar    1  UNL1        0.1570
     21 F         141.1102  136.7031  164.2558 F       1  UNL1       -0.2028
     22 C         139.8378  138.5051  163.8962 C.ar    1  UNL1        0.0318
     23 C         139.7199  139.6729  162.9622 C.ar    1  UNL1        0.1005
     24 N         138.6203  140.6758  163.1503 N.ar    1  UNL1       -0.2104
     25 C         137.6728  144.1265  163.1383 C.3     1  UNL1        0.2542
     26 O         137.4030  142.8463  162.4045 O.3     1  UNL1       -0.4561
     27 N         143.5799  142.9827  166.8573 N.3     1  UNL1       -0.2926
     28 H         144.1571  142.6636  167.6354 H       1  UNL1        0.1236
     29 C         144.5057  143.2253  165.7022 C.3     1  UNL1        0.1152
     30 C         143.9467  143.4834  164.3344 C.ar    1  UNL1        0.0765
     31 C         144.5891  142.8586  163.1315 C.ar    1  UNL1        0.0193
     32 C         144.0301  143.1168  161.7637 C.ar    1  UNL1        0.0411
     33 C         142.8287  143.9997  161.5988 C.ar    1  UNL1        0.1708
     34 C         142.1863  144.6244  162.8018 C.ar    1  UNL1        0.1682
     35 N         142.7453  144.3663  164.1696 N.ar    1  UNL1       -0.2304
     36 N         140.9849  145.5073  162.6369 N.am    1  UNL1       -0.2639
     37 C         140.4259  145.7655  161.2691 C.2     1  UNL1        0.2718
     38 O         139.2245  146.6483  161.1042 O.2     1  UNL1       -0.2707
     39 C         141.0683  145.1407  160.0662 C.3     1  UNL1        0.2898
     40 O         142.2697  144.2579  160.2310 O.3     1  UNL1       -0.4628
     41 H         140.5632  145.9174  163.4264 H       1  UNL1        0.1565
@<TRIPOS>BOND
     1    25    26    1
     2    26    14    1
     3    14    15   ar
     4    15    16   ar
     5    16    17   ar
     6    17    18   ar
     7    18    19   ar
     8    19    20   ar
     9    20    21    1
    10    20    22   ar
    11    22    13    1
    12    13     9    1
    13     9    10    2
    14    10    11    1
    15     9     1    1
    16     1     2    1
    17     2     3    1
    18     3     4    1
    19     4    27    1
    20    27    29    1
    21    29    30    1
    22    30    31   ar
    23    31    32   ar
    24    32    33   ar
    25    33    34   ar
    26    34    35   ar
    27    34    36    1
    28    36    37   am
    29    37    38    2
    30    37    39    1
    31    39    40    1
    32     4     5    1
    33     5     6    1
    34     4     7    1
    35     7     8    1
    36    22    23   ar
    37    23    24   ar
    38    24    14   ar
    39    23    17   ar
    40     6     1    1
    41     8     1    1
    42    35    30   ar
    43    40    33    1
    44    11    12    1
    45    27    28    1
    46    36    41    1
@<TRIPOS>MOLECULE
*****
 41 46 0 0 0
SMALL
GASTEIGER

@<TRIPOS>ATOM
      1 C         141.5512  144.5241  162.7431 C.3     1  UNL1        0.1272
      2 C         142.0428  143.7390  161.5632 C.3     1  UNL1        0.0342
      3 C         143.3760  143.0541  161.6209 C.3     1  UNL1        0.0197
      4 C         144.2177  143.1544  162.8585 C.3     1  UNL1        0.0701
      5 C         143.7261  143.9394  164.0383 C.3     1  UNL1        0.0197
      6 C         142.3928  144.6243  163.9806 C.3     1  UNL1        0.0342
      7 C         143.4941  143.5468  162.8738 C.3     1  UNL1        0.1566
      8 O         142.2884  144.1661  162.8216 O.3     1  UNL1       -0.3518
      9 C         140.2179  145.2090  162.6853 C.2     1  UNL1        0.1032
     10 N         139.9804  146.3052  161.6895 N.2     1  UNL1       -0.0926
     11 O         139.1518  146.8209  161.5625 O.2     1  UNL1       -0.4092
     12 H         139.1113  147.4885  160.9064 H       1  UNL1        0.3278
     13 C         139.1221  144.7976  163.6235 C.3     1  UNL1        0.0772
     14 C         140.3459  142.2568  167.1302 C.ar    1  UNL1        0.2250
     15 C         139.9191  140.8206  167.2009 C.ar    1  UNL1        0.0593
     16 C         139.0844  140.2312  166.1029 C.ar    1  UNL1        0.0254
     17 C         138.6764  141.0782  164.9339 C.ar    1  UNL1        0.0990
     18 N         137.8417  140.4888  163.8358 N.ar    1  UNL1       -0.2400
     19 C         137.4337  141.3358  162.6669 C.ar    1  UNL1        0.1281
     20 C         137.8605  142.7720  162.5961 C.ar    1  UNL1        0.1570
     21 F         137.5366  143.2300  161.7875 F       1  UNL1       -0.2028
     22 C         138.6953  143.3613  163.6943 C.ar    1  UNL1        0.0318
     23 C         139.1032  142.5144  164.8631 C.ar    1  UNL1        0.1005
     24 N         139.9380  143.1037  165.9613 N.ar    1  UNL1       -0.2104
     25 C         142.5597  142.3165  168.4887 C.3     1  UNL1        0.2542
     26 O         141.1807  142.8461  168.2283 O.3     1  UNL1       -0.4561
     27 N         145.5510  142.4695  162.9163 N.3     1  UNL1       -0.2926
     28 H         146.1688  143.0730  163.4589 H       1  UNL1        0.1236
     29 C         145.6628  141.0942  163.5047 C.3     1  UNL1        0.1152
     30 C         144.4281  140.2740  163.7343 C.ar    1  UNL1        0.0765
     31 C         144.1033  139.7771  165.1119 C.ar    1  UNL1        0.0193
     32 C         142.8685  138.9569  165.3415 C.ar    1  UNL1        0.0411
     33 C         141.9586  138.6337  164.1936 C.ar    1  UNL1        0.1708
     34 C         142.2834  139.1307  162.8162 C.ar    1  UNL1        0.1682
     35 N         143.5182  139.9508  162.5865 N.ar    1  UNL1       -0.2304
     36 N         141.3735  138.8075  161.6682 N.am    1  UNL1       -0.2639
     37 C         140.1387  137.9873  161.8979 C.2     1  UNL1        0.2718
     38 O         139.2288  137.6641  160.7501 O.2     1  UNL1       -0.2707
     39 C         139.8139  137.4903  163.2755 C.3     1  UNL1        0.2898
     40 O         140.7239  137.8135  164.4233 O.3     1  UNL1       -0.4628
     41 H         141.5867  139.1337  160.7641 H       1  UNL1        0.1565
@<TRIPOS>BOND
     1    25    26    1
     2    26    14    1
     3    14    15   ar
     4    15    16   ar
     5    16    17   ar
     6    17    18   ar
     7    18    19   ar
     8    19    20   ar
     9    20    21    1
    10    20    22   ar
    11    22    13    1
    12    13     9    1
    13     9    10    2
    14    10    11    1
    15     9     1    1
    16     1     2    1
    17     2     3    1
    18     3     4    1
    19     4    27    1
    20    27    29    1
    21    29    30    1
    22    30    31   ar
    23    31    32   ar
    24    32    33   ar
    25    33    34   ar
    26    34    35   ar
    27    34    36    1
    28    36    37   am
    29    37    38    2
    30    37    39    1
    31    39    40    1
    32     4     5    1
    33     5     6    1
    34     4     7    1
    35     7     8    1
    36    22    23   ar
    37    23    24   ar
    38    24    14   ar
    39    23    17   ar
    40     6     1    1
    41     8     1    1
    42    35    30   ar
    43    40    33    1
    44    11    12    1
    45    27    28    1
    46    36    41    1
@<TRIPOS>MOLECULE
*****
 41 46 0 0 0
SMALL
GASTEIGER

@<TRIPOS>ATOM
      1 C         142.9703  141.2715  166.4298 C.3     1  UNL1        0.1272
      2 C         143.2094  139.7920  166.4949 C.3     1  UNL1        0.0342
      3 C         143.7502  139.0664  165.2987 C.3     1  UNL1        0.0197
      4 C         144.0519  139.8201  164.0374 C.3     1  UNL1        0.0701
      5 C         143.8128  141.2995  163.9723 C.3     1  UNL1        0.0197
      6 C         143.2720  142.0252  165.1685 C.3     1  UNL1        0.0342
      7 C         143.7568  140.2610  164.6670 C.3     1  UNL1        0.1566
      8 O         143.2678  140.9172  165.7487 O.3     1  UNL1       -0.3518
      9 C         142.4296  141.9972  167.6260 C.2     1  UNL1        0.1032
     10 N         143.3650  142.4928  168.6887 N.2     1  UNL1       -0.0926
     11 O         143.1242  142.9776  169.5106 O.2     1  UNL1       -0.4092
     12 H         143.7929  143.2429  170.1110 H       1  UNL1        0.3278
     13 C         140.9533  142.2272  167.7596 C.3     1  UNL1        0.0772
     14 C         139.1804  143.8940  163.9743 C.ar    1  UNL1        0.2250
     15 C         138.2175  143.0707  163.1711 C.ar    1  UNL1        0.0593
     16 C         137.8455  141.6919  163.6298 C.ar    1  UNL1        0.0254
     17 C         138.4364  141.1362  164.8916 C.ar    1  UNL1        0.0990
     18 N         138.0644  139.7574  165.3502 N.ar    1  UNL1       -0.2400
     19 C         138.6554  139.2018  166.6120 C.ar    1  UNL1        0.1281
     20 C         139.6183  140.0250  167.4152 C.ar    1  UNL1        0.1570
     21 F         139.9415  139.5615  168.2209 F       1  UNL1       -0.2028
     22 C         139.9903  141.4039  166.9565 C.ar    1  UNL1        0.0318
     23 C         139.3994  141.9595  165.6947 C.ar    1  UNL1        0.1005
     24 N         139.7714  143.3384  165.2360 N.ar    1  UNL1       -0.2104
     25 C         139.6167  145.5837  162.0496 C.3     1  UNL1        0.2542
     26 O         139.5525  145.2728  163.5156 O.3     1  UNL1       -0.4561
     27 N         144.5927  139.0945  162.8411 N.3     1  UNL1       -0.2926
     28 H         145.4561  138.6398  163.1381 H       1  UNL1        0.1236
     29 C         143.7627  138.0459  162.1615 C.3     1  UNL1        0.1152
     30 C         142.2833  138.2423  162.0100 C.ar    1  UNL1        0.0765
     31 C         141.3367  137.5758  162.9638 C.ar    1  UNL1        0.0193
     32 C         139.8573  137.7722  162.8123 C.ar    1  UNL1        0.0411
     33 C         139.3246  138.6349  161.7068 C.ar    1  UNL1        0.1708
     34 C         140.2713  139.3013  160.7530 C.ar    1  UNL1        0.1682
     35 N         141.7506  139.1050  160.9046 N.ar    1  UNL1       -0.2304
     36 N         139.7386  140.1641  159.6476 N.am    1  UNL1       -0.2639
     37 C         138.2592  140.3605  159.4960 C.2     1  UNL1        0.2718
     38 O         137.7265  141.2232  158.3907 O.2     1  UNL1       -0.2707
     39 C         137.3126  139.6940  160.4499 C.3     1  UNL1        0.2898
     40 O         137.8453  138.8313  161.5552 O.3     1  UNL1       -0.4628
     41 H         140.3599  140.6015  159.0216 H       1  UNL1        0.1565
@<TRIPOS>BOND
     1    25    26    1
     2    26    14    1
     3    14    15   ar
     4    15    16   ar
     5    16    17   ar
     6    17    18   ar
     7    18    19   ar
     8    19    20   ar
     9    20    21    1
    10    20    22   ar
    11    22    13    1
    12    13     9    1
    13     9    10    2
    14    10    11    1
    15     9     1    1
    16     1     2    1
    17     2     3    1
    18     3     4    1
    19     4    27    1
    20    27    29    1
    21    29    30    1
    22    30    31   ar
    23    31    32   ar
    24    32    33   ar
    25    33    34   ar
    26    34    35   ar
    27    34    36    1
    28    36    37   am
    29    37    38    2
    30    37    39    1
    31    39    40    1
    32     4     5    1
    33     5     6    1
    34     4     7    1
    35     7     8    1
    36    22    23   ar
    37    23    24   ar
    38    24    14   ar
    39    23    17   ar
    40     6     1    1
    41     8     1    1
    42    35    30   ar
    43    40    33    1
    44    11    12    1
    45    27    28    1
    46    36    41    1
@<TRIPOS>MOLECULE
*****
 41 46 0 0 0
SMALL
GASTEIGER

@<TRIPOS>ATOM
      1 C         143.0115  142.3091  164.3289 C.3     1  UNL1        0.1272
      2 C         142.1920  142.2642  165.5845 C.3     1  UNL1        0.0342
      3 C         140.9987  143.1608  165.7336 C.3     1  UNL1        0.0197
      4 C         140.6250  144.1022  164.6272 C.3     1  UNL1        0.0701
      5 C         141.4445  144.1470  163.3717 C.3     1  UNL1        0.0197
      6 C         142.6378  143.2505  163.2225 C.3     1  UNL1        0.0342
      7 C         141.2874  143.6302  164.4996 C.3     1  UNL1        0.1566
      8 O         142.3664  142.8194  164.3648 O.3     1  UNL1       -0.3518
      9 C         144.2048  141.4125  164.1798 C.2     1  UNL1        0.1032
     10 N         145.5447  141.9969  163.8433 N.2     1  UNL1       -0.0926
     11 O         146.3904  141.5084  163.7220 O.2     1  UNL1       -0.4092
     12 H         147.1751  141.9753  163.5118 H       1  UNL1        0.3278
     13 C         144.0582  139.9314  164.3671 C.3     1  UNL1        0.0772
     14 C         139.8569  138.8195  165.5346 C.ar    1  UNL1        0.2250
     15 C         139.0018  138.0254  164.5921 C.ar    1  UNL1        0.0593
     16 C         139.5472  137.6019  163.2605 C.ar    1  UNL1        0.0254
     17 C         140.9476  137.9726  162.8713 C.ar    1  UNL1        0.0990
     18 N         141.4930  137.5491  161.5397 N.ar    1  UNL1       -0.2400
     19 C         142.8934  137.9197  161.1505 C.ar    1  UNL1        0.1281
     20 C         143.7485  138.7138  162.0929 C.ar    1  UNL1        0.1570
     21 F         144.6461  138.8989  161.7345 F       1  UNL1       -0.2028
     22 C         143.2031  139.1373  163.4246 C.ar    1  UNL1        0.0318
     23 C         141.8027  138.7667  163.8138 C.ar    1  UNL1        0.1005
     24 N         141.2573  139.1902  165.1454 N.ar    1  UNL1       -0.2104
     25 C         140.1454  140.0870  167.7841 C.3     1  UNL1        0.2542
     26 O         139.3116  139.2430  166.8662 O.3     1  UNL1       -0.4561
     27 N         139.4317  144.9988  164.7763 N.3     1  UNL1       -0.2926
     28 H         139.6497  145.8639  164.2817 H       1  UNL1        0.1236
     29 C         138.0880  144.5467  164.2863 C.3     1  UNL1        0.1152
     30 C         137.9886  143.4139  163.3081 C.ar    1  UNL1        0.0765
     31 C         137.6406  142.0363  163.7887 C.ar    1  UNL1        0.0193
     32 C         137.5413  140.9035  162.8104 C.ar    1  UNL1        0.0411
     33 C         137.7899  141.1484  161.3515 C.ar    1  UNL1        0.1708
     34 C         138.1379  142.5261  160.8710 C.ar    1  UNL1        0.1682
     35 N         138.2373  143.6588  161.8493 N.ar    1  UNL1       -0.2304
     36 N         138.3866  142.7710  159.4121 N.am    1  UNL1       -0.2639
     37 C         138.2872  141.6382  158.4339 C.2     1  UNL1        0.2718
     38 O         138.5359  141.8831  156.9751 O.2     1  UNL1       -0.2707
     39 C         137.9392  140.2606  158.9145 C.3     1  UNL1        0.2898
     40 O         137.6906  140.0157  160.3733 O.3     1  UNL1       -0.4628
     41 H         138.6150  143.6752  159.0967 H       1  UNL1        0.1565
@<TRIPOS>BOND
     1    25    26    1
     2    26    14    1
     3    14    15   ar
     4    15    16   ar
     5    16    17   ar
     6    17    18   ar
     7    18    19   ar
     8    19    20   ar
     9    20    21    1
    10    20    22   ar
    11    22    13    1
    12    13     9    1
    13     9    10    2
    14    10    11    1
    15     9     1    1
    16     1     2    1
    17     2     3    1
    18     3     4    1
    19     4    27    1
    20    27    29    1
    21    29    30    1
    22    30    31   ar
    23    31    32   ar
    24    32    33   ar
    25    33    34   ar
    26    34    35   ar
    27    34    36    1
    28    36    37   am
    29    37    38    2
    30    37    39    1
    31    39    40    1
    32     4     5    1
    33     5     6    1
    34     4     7    1
    35     7     8    1
    36    22    23   ar
    37    23    24   ar
    38    24    14   ar
    39    23    17   ar
    40     6     1    1
    41     8     1    1
    42    35    30   ar
    43    40    33    1
    44    11    12    1
    45    27    28    1
    46    36    41    1
@<TRIPOS>MOLECULE
*****
 41 46 0 0 0
SMALL
GASTEIGER

@<TRIPOS>ATOM
      1 C         139.4521  143.5439  162.6251 C.3     1  UNL1        0.1272
      2 C         139.1425  143.6083  164.0914 C.3     1  UNL1        0.0342
      3 C         138.5743  142.4095  164.7913 C.3     1  UNL1        0.0197
      4 C         138.3157  141.1462  164.0249 C.3     1  UNL1        0.0701
      5 C         138.6253  141.0818  162.5587 C.3     1  UNL1        0.0197
      6 C         139.1936  142.2806  161.8588 C.3     1  UNL1        0.0342
      7 C         138.6280  141.7772  163.5981 C.3     1  UNL1        0.1566
      8 O         139.1418  142.8613  162.9652 O.3     1  UNL1       -0.3518
      9 C         140.0203  144.7427  161.9251 C.2     1  UNL1        0.1032
     10 N         139.1400  145.9166  161.6138 N.2     1  UNL1       -0.0926
     11 O         139.4024  146.7503  161.1615 O.2     1  UNL1       -0.4092
     12 H         138.7679  147.4243  161.0163 H       1  UNL1        0.3278
     13 C         141.4690  144.7676  161.5366 C.3     1  UNL1        0.0772
     14 C         143.2341  140.7393  160.5845 C.ar    1  UNL1        0.2250
     15 C         144.2649  140.1383  161.4935 C.ar    1  UNL1        0.0593
     16 C         144.7073  140.8800  162.7199 C.ar    1  UNL1        0.0254
     17 C         144.1189  142.2229  163.0373 C.ar    1  UNL1        0.0990
     18 N         144.5613  142.9646  164.2637 N.ar    1  UNL1       -0.2400
     19 C         143.9729  144.3075  164.5811 C.ar    1  UNL1        0.1281
     20 C         142.9421  144.9085  163.6720 C.ar    1  UNL1        0.1570
     21 F         142.6270  145.7894  163.9773 F       1  UNL1       -0.2028
     22 C         142.4997  144.1666  162.4456 C.ar    1  UNL1        0.0318
     23 C         143.0881  142.8239  162.1283 C.ar    1  UNL1        0.1005
     24 N         142.6458  142.0820  160.9018 N.ar    1  UNL1       -0.2104
     25 C         142.7731  138.4976  159.3547 C.3     1  UNL1        0.2542
     26 O         142.7918  139.9975  159.3581 O.3     1  UNL1       -0.4561
     27 N         137.7475  139.9473  164.7249 N.3     1  UNL1       -0.2926
     28 H         137.1680  139.4562  164.0442 H       1  UNL1        0.1236
     29 C         138.6657  138.9263  165.3287 C.3     1  UNL1        0.1152
     30 C         139.7193  139.3512  166.3082 C.ar    1  UNL1        0.0765
     31 C         141.1704  139.1663  165.9761 C.ar    1  UNL1        0.0193
     32 C         142.2240  139.5912  166.9555 C.ar    1  UNL1        0.0411
     33 C         141.8265  140.2011  168.2671 C.ar    1  UNL1        0.1708
     34 C         140.3755  140.3860  168.5992 C.ar    1  UNL1        0.1682
     35 N         139.3219  139.9611  167.6197 N.ar    1  UNL1       -0.2304
     36 N         139.9780  140.9959  169.9107 N.am    1  UNL1       -0.2639
     37 C         141.0316  141.4208  170.8902 C.2     1  UNL1        0.2718
     38 O         140.6342  142.0306  172.2017 O.2     1  UNL1       -0.2707
     39 C         142.4827  141.2359  170.5581 C.3     1  UNL1        0.2898
     40 O         142.8801  140.6260  169.2466 O.3     1  UNL1       -0.4628
     41 H         139.0256  141.1172  170.1287 H       1  UNL1        0.1565
@<TRIPOS>BOND
     1    25    26    1
     2    26    14    1
     3    14    15   ar
     4    15    16   ar
     5    16    17   ar
     6    17    18   ar
     7    18    19   ar
     8    19    20   ar
     9    20    21    1
    10    20    22   ar
    11    22    13    1
    12    13     9    1
    13     9    10    2
    14    10    11    1
    15     9     1    1
    16     1     2    1
    17     2     3    1
    18     3     4    1
    19     4    27    1
    20    27    29    1
    21    29    30    1
    22    30    31   ar
    23    31    32   ar
    24    32    33   ar
    25    33    34   ar
    26    34    35   ar
    27    34    36    1
    28    36    37   am
    29    37    38    2
    30    37    39    1
    31    39    40    1
    32     4     5    1
    33     5     6    1
    34     4     7    1
    35     7     8    1
    36    22    23   ar
    37    23    24   ar
    38    24    14   ar
    39    23    17   ar
    40     6     1    1
    41     8     1    1
    42    35    30   ar
    43    40    33    1
    44    11    12    1
    45    27    28    1
    46    36    41    1
@<TRIPOS>MOLECULE
*****
 41 46 0 0 0
SMALL
GASTEIGER

@<TRIPOS>ATOM
      1 C         143.4393  139.1646  161.7764 C.3     1  UNL1        0.1272
      2 C         143.7785  138.8981  163.2131 C.3     1  UNL1        0.0342
      3 C         144.5665  139.9054  163.9969 C.3     1  UNL1        0.0197
      4 C         145.0154  141.1792  163.3440 C.3     1  UNL1        0.0701
      5 C         144.6762  141.4456  161.9074 C.3     1  UNL1        0.0197
      6 C         143.8881  140.4383  161.1236 C.3     1  UNL1        0.0342
      7 C         144.5858  140.6572  162.8741 C.3     1  UNL1        0.1566
      8 O         143.8732  139.7463  162.1653 O.3     1  UNL1       -0.3518
      9 C         142.6512  138.1573  160.9926 C.2     1  UNL1        0.1032
     10 N         143.3564  137.0344  160.2913 N.2     1  UNL1       -0.0926
     11 O         142.9448  136.3213  159.7523 O.2     1  UNL1       -0.4092
     12 H         143.4823  135.6643  159.3556 H       1  UNL1        0.3278
     13 C         141.1579  138.2729  160.9101 C.3     1  UNL1        0.0772
     14 C         138.3475  141.7571  161.3708 C.ar    1  UNL1        0.2250
     15 C         137.5365  141.9059  162.6238 C.ar    1  UNL1        0.0593
     16 C         137.6622  140.8933  163.7233 C.ar    1  UNL1        0.0254
     17 C         138.5990  139.7319  163.5698 C.ar    1  UNL1        0.0990
     18 N         138.7248  138.7193  164.6692 N.ar    1  UNL1       -0.2400
     19 C         139.6616  137.5579  164.5157 C.ar    1  UNL1        0.1281
     20 C         140.4726  137.4091  163.2627 C.ar    1  UNL1        0.1570
     21 F         141.0510  136.6129  163.2713 F       1  UNL1       -0.2028
     22 C         140.3469  138.4217  162.1632 C.ar    1  UNL1        0.0318
     23 C         139.4101  139.5831  162.3167 C.ar    1  UNL1        0.1005
     24 N         139.2843  140.5957  161.2172 N.ar    1  UNL1       -0.2104
     25 C         139.4371  143.1974  159.5031 C.3     1  UNL1        0.2542
     26 O         138.2218  142.7696  160.2713 O.3     1  UNL1       -0.4561
     27 N         145.8035  142.1865  164.1278 N.3     1  UNL1       -0.2926
     28 H         146.3538  142.7188  163.4539 H       1  UNL1        0.1236
     29 C         145.0937  143.1855  164.9928 C.3     1  UNL1        0.1152
     30 C         143.6347  143.4603  164.7789 C.ar    1  UNL1        0.0765
     31 C         142.6117  142.8110  165.6632 C.ar    1  UNL1        0.0193
     32 C         141.1526  143.0857  165.4492 C.ar    1  UNL1        0.0411
     33 C         140.7166  144.0097  164.3510 C.ar    1  UNL1        0.1708
     34 C         141.7396  144.6590  163.4667 C.ar    1  UNL1        0.1682
     35 N         143.1986  144.3842  163.6807 N.ar    1  UNL1       -0.2304
     36 N         141.3036  145.5830  162.3685 N.am    1  UNL1       -0.2639
     37 C         139.8445  145.8578  162.1545 C.2     1  UNL1        0.2718
     38 O         139.4085  146.7817  161.0563 O.2     1  UNL1       -0.2707
     39 C         138.8215  145.2085  163.0388 C.3     1  UNL1        0.2898
     40 O         139.2576  144.2845  164.1370 O.3     1  UNL1       -0.4628
     41 H         141.9750  146.0092  161.7881 H       1  UNL1        0.1565
@<TRIPOS>BOND
     1    25    26    1
     2    26    14    1
     3    14    15   ar
     4    15    16   ar
     5    16    17   ar
     6    17    18   ar
     7    18    19   ar
     8    19    20   ar
     9    20    21    1
    10    20    22   ar
    11    22    13    1
    12    13     9    1
    13     9    10    2
    14    10    11    1
    15     9     1    1
    16     1     2    1
    17     2     3    1
    18     3     4    1
    19     4    27    1
    20    27    29    1
    21    29    30    1
    22    30    31   ar
    23    31    32   ar
    24    32    33   ar
    25    33    34   ar
    26    34    35   ar
    27    34    36    1
    28    36    37   am
    29    37    38    2
    30    37    39    1
    31    39    40    1
    32     4     5    1
    33     5     6    1
    34     4     7    1
    35     7     8    1
    36    22    23   ar
    37    23    24   ar
    38    24    14   ar
    39    23    17   ar
    40     6     1    1
    41     8     1    1
    42    35    30   ar
    43    40    33    1
    44    11    12    1
    45    27    28    1
    46    36    41    1
@<TRIPOS>MOLECULE
*****
 41 46 0 0 0
SMALL
GASTEIGER

@<TRIPOS>ATOM
      1 C         141.0889  140.2045  166.6765 C.3     1  UNL1        0.1272
      2 C         141.4089  141.6292  166.3334 C.3     1  UNL1        0.0342
      3 C         142.6555  141.9537  165.5648 C.3     1  UNL1        0.0197
      4 C         143.5821  140.8534  165.1394 C.3     1  UNL1        0.0701
      5 C         143.2620  139.4287  165.4825 C.3     1  UNL1        0.0197
      6 C         142.0154  139.1043  166.2510 C.3     1  UNL1        0.0342
      7 C         142.9109  140.6267  165.5588 C.3     1  UNL1        0.1566
      8 O         141.7836  140.3332  166.2538 O.3     1  UNL1       -0.3518
      9 C         139.8423  139.8800  167.4451 C.2     1  UNL1        0.1032
     10 N         139.8624  139.8881  168.9449 N.2     1  UNL1       -0.0926
     11 O         139.1101  139.6925  169.5484 O.2     1  UNL1       -0.4092
     12 H         139.2331  139.7265  170.4767 H       1  UNL1        0.3278
     13 C         138.5755  139.5473  166.7137 C.3     1  UNL1        0.0772
     14 C         137.8900  142.9427  163.8412 C.ar    1  UNL1        0.2250
     15 C         137.9213  142.6921  162.3626 C.ar    1  UNL1        0.0593
     16 C         138.1811  141.3098  161.8415 C.ar    1  UNL1        0.0254
     17 C         138.4097  140.1779  162.7991 C.ar    1  UNL1        0.0990
     18 N         138.6695  138.7956  162.2780 N.ar    1  UNL1       -0.2400
     19 C         138.8981  137.6637  163.2355 C.ar    1  UNL1        0.1281
     20 C         138.8667  137.9143  164.7141 C.ar    1  UNL1        0.1570
     21 F         139.0290  137.1019  165.2453 F       1  UNL1       -0.2028
     22 C         138.6069  139.2967  165.2352 C.ar    1  UNL1        0.0318
     23 C         138.3783  140.4285  164.2776 C.ar    1  UNL1        0.1005
     24 N         138.1185  141.8109  164.7987 N.ar    1  UNL1       -0.2104
     25 C         138.5090  144.9005  165.4330 C.3     1  UNL1        0.2542
     26 O         137.6301  144.3250  164.3623 O.3     1  UNL1       -0.4561
     27 N         144.8287  141.1779  164.3708 N.3     1  UNL1       -0.2926
     28 H         145.3084  140.2939  164.2009 H       1  UNL1        0.1236
     29 C         144.7332  141.8798  163.0485 C.3     1  UNL1        0.1152
     30 C         143.7770  141.3851  162.0041 C.ar    1  UNL1        0.0765
     31 C         142.5034  142.1321  161.7391 C.ar    1  UNL1        0.0193
     32 C         141.5472  141.6374  160.6947 C.ar    1  UNL1        0.0411
     33 C         141.8645  140.3956  159.9153 C.ar    1  UNL1        0.1708
     34 C         143.1380  139.6487  160.1803 C.ar    1  UNL1        0.1682
     35 N         144.0942  140.1434  161.2247 N.ar    1  UNL1       -0.2304
     36 N         143.4552  138.4069  159.4009 N.am    1  UNL1       -0.2639
     37 C         142.4990  137.9122  158.3564 C.2     1  UNL1        0.2718
     38 O         142.8162  136.6705  157.5770 O.2     1  UNL1       -0.2707
     39 C         141.2255  138.6592  158.0914 C.3     1  UNL1        0.2898
     40 O         140.9082  139.9009  158.8708 O.3     1  UNL1       -0.4628
     41 H         144.2911  137.9167  159.5748 H       1  UNL1        0.1565
@<TRIPOS>BOND
     1    25    26    1
     2    26    14    1
     3    14    15   ar
     4    15    16   ar
     5    16    17   ar
     6    17    18   ar
     7    18    19   ar
     8    19    20   ar
     9    20    21    1
    10    20    22   ar
    11    22    13    1
    12    13     9    1
    13     9    10    2
    14    10    11    1
    15     9     1    1
    16     1     2    1
    17     2     3    1
    18     3     4    1
    19     4    27    1
    20    27    29    1
    21    29    30    1
    22    30    31   ar
    23    31    32   ar
    24    32    33   ar
    25    33    34   ar
    26    34    35   ar
    27    34    36    1
    28    36    37   am
    29    37    38    2
    30    37    39    1
    31    39    40    1
    32     4     5    1
    33     5     6    1
    34     4     7    1
    35     7     8    1
    36    22    23   ar
    37    23    24   ar
    38    24    14   ar
    39    23    17   ar
    40     6     1    1
    41     8     1    1
    42    35    30   ar
    43    40    33    1
    44    11    12    1
    45    27    28    1
    46    36    41    1
