@<TRIPOS>MOLECULE
*****
 43 47 0 0 0
SMALL
GASTEIGER

@<TRIPOS>ATOM
      1 C         143.4407  142.1956  162.3415 C.2     1  UNL1        0.2435
      2 O         144.4144  141.0566  162.2748 O.2     1  UNL1       -0.2731
      3 N         142.8501  142.7523  161.0799 N.am    1  UNL1       -0.2781
      4 C         143.2333  142.1699  159.7518 C.3     1  UNL1        0.0956
      5 C         142.6427  142.7265  158.4903 C.3     1  UNL1        0.0490
      6 C         141.6690  143.8655  158.5570 C.3     1  UNL1        0.1377
      7 C         141.2858  144.4479  159.8851 C.3     1  UNL1        0.0490
      8 C         141.8764  143.8913  161.1466 C.3     1  UNL1        0.0956
      9 C         140.6880  144.9968  158.4670 C.2     1  UNL1        0.2491
     10 O         140.1254  145.7700  159.6227 O.2     1  UNL1       -0.2727
     11 N         140.3684  145.2191  157.0183 N.am    1  UNL1       -0.2108
     12 C         139.4302  146.2536  156.4711 C.3     1  UNL1        0.1245
     13 C         141.1519  144.2252  156.2130 C.2     1  UNL1        0.3168
     14 O         141.1346  144.0913  154.7192 O.2     1  UNL1       -0.2516
     15 N         141.9556  143.3887  157.1639 N.am    1  UNL1       -0.2411
     16 C         142.8832  142.2715  156.7879 C.2     1  UNL1        0.0376
     17 C         144.3322  142.5561  156.5247 C.2     1  UNL1        0.0125
     18 C         145.2597  141.4388  156.1487 C.2     1  UNL1        0.0216
     19 C         144.7382  140.0368  156.0359 C.2     1  UNL1        0.1008
     20 N         145.4090  138.7415  155.6862 N.2     1  UNL1       -0.1482
     21 N         144.3745  137.6564  155.7333 N.2     1  UNL1       -0.1467
     22 C         143.0644  138.2810  156.1121 C.2     1  UNL1        0.1198
     23 C         143.2892  139.7522  156.2991 C.2     1  UNL1        0.0238
     24 C         142.3617  140.8695  156.6751 C.3     1  UNL1        0.0710
     25 C         143.0575  142.7780  163.6696 C.3     1  UNL1        0.1489
     26 N         141.8719  142.2366  164.4120 N.am    1  UNL1       -0.2947
     27 C         142.0147  141.0060  165.2579 C.2     1  UNL1        0.2483
     28 O         143.3430  140.3169  165.3613 O.2     1  UNL1       -0.2701
     29 H         141.0001  142.6888  164.3442 H       1  UNL1        0.1501
     30 C         140.8291  140.4645  166.0003 C.ar    1  UNL1        0.0807
     31 C         140.8483  140.3994  167.4988 C.ar    1  UNL1        0.0106
     32 C         139.6628  139.8580  168.2413 C.ar    1  UNL1        0.0717
     33 C         138.4579  139.3817  167.4852 C.ar    1  UNL1        0.0062
     34 C         138.4387  139.4468  165.9868 C.ar    1  UNL1        0.0297
     35 C         139.6243  139.9882  165.2443 C.ar    1  UNL1        0.1444
     36 F         139.6051  140.0534  163.7459 F       1  UNL1       -0.2040
     37 C         139.6820  139.7928  169.7397 C.3     1  UNL1        0.4186
     38 F         139.7012  139.7277  171.2382 F       1  UNL1       -0.1659
     39 F         141.1182  139.3617  169.7025 F       1  UNL1       -0.1659
     40 F         138.2457  140.2239  169.7768 F       1  UNL1       -0.1659
     41 C         143.7521  145.2815  163.6766 C.3     1  UNL1        0.0022
     42 C         143.8599  143.9019  164.2553 C.3     1  UNL1        0.0269
     43 C         144.7701  143.6461  165.4198 C.3     1  UNL1        0.0022
@<TRIPOS>BOND
     1    41    42    1
     2    42    43    1
     3    42    25    1
     4    25    26    1
     5    26    27   am
     6    27    28    2
     7    27    30    1
     8    30    31   ar
     9    31    32   ar
    10    32    37    1
    11    37    38    1
    12    37    39    1
    13    37    40    1
    14    32    33   ar
    15    33    34   ar
    16    34    35   ar
    17    35    36    1
    18    25     1    1
    19     1     2    2
    20     1     3   am
    21     3     4    1
    22     4     5    1
    23     5     6    1
    24     6     7    1
    25     7     8    1
    26     6     9    1
    27     9    10    2
    28     9    11   am
    29    11    12    1
    30    11    13   am
    31    13    14    2
    32    13    15   am
    33    15    16    1
    34    16    17    2
    35    17    18    1
    36    18    19    2
    37    19    20    1
    38    20    21    2
    39    21    22    1
    40    22    23    2
    41    23    24    1
    42    35    30   ar
    43     8     3    1
    44    24    16    1
    45    15     6    1
    46    23    19    1
    47    26    29    1
@<TRIPOS>MOLECULE
*****
 43 47 0 0 0
SMALL
GASTEIGER

@<TRIPOS>ATOM
      1 C         139.8408  139.2425  160.8128 C.2     1  UNL1        0.2435
      2 O         139.0225  137.9904  160.6998 O.2     1  UNL1       -0.2731
      3 N         140.9297  139.5189  159.8188 N.am    1  UNL1       -0.2781
      4 C         141.2004  138.5434  158.7121 C.3     1  UNL1        0.0956
      5 C         142.2893  138.8199  157.7183 C.3     1  UNL1        0.0490
      6 C         143.1076  140.0720  157.8312 C.3     1  UNL1        0.1377
      7 C         142.8369  141.0476  158.9379 C.3     1  UNL1        0.0490
      8 C         141.7480  140.7710  159.9318 C.3     1  UNL1        0.0956
      9 C         144.0034  141.2750  157.8167 C.2     1  UNL1        0.2491
     10 O         143.9676  142.4128  158.7935 O.2     1  UNL1       -0.2727
     11 N         144.9414  141.1406  156.6538 N.am    1  UNL1       -0.2108
     12 C         146.0082  142.1202  156.2637 C.3     1  UNL1        0.1245
     13 C         144.6252  139.8544  155.9496 C.2     1  UNL1        0.3168
     14 O         145.3203  139.3221  154.7317 O.2     1  UNL1       -0.2516
     15 N         143.4919  139.1940  156.6772 N.am    1  UNL1       -0.2411
     16 C         142.8547  137.8854  156.3147 C.2     1  UNL1        0.0376
     17 C         141.6912  137.8543  155.3685 C.2     1  UNL1        0.0125
     18 C         141.0540  136.5456  155.0060 C.2     1  UNL1        0.0216
     19 C         141.5804  135.2680  155.5896 C.2     1  UNL1        0.1008
     20 N         141.1600  133.8383  155.4187 N.2     1  UNL1       -0.1482
     21 N         142.0637  132.9858  156.2591 N.2     1  UNL1       -0.1467
     22 C         143.0427  133.8885  156.9495 C.2     1  UNL1        0.1198
     23 C         142.7440  135.2990  156.5357 C.2     1  UNL1        0.0238
     24 C         143.3811  136.6077  156.8983 C.3     1  UNL1        0.0710
     25 C         139.5701  140.2180  161.9195 C.3     1  UNL1        0.1489
     26 N         140.4271  140.2123  163.1506 N.am    1  UNL1       -0.2947
     27 C         140.1268  139.2589  164.2690 C.2     1  UNL1        0.2483
     28 O         138.9696  138.3112  164.1564 O.2     1  UNL1       -0.2701
     29 H         141.1866  140.8343  163.2246 H       1  UNL1        0.1501
     30 C         140.9838  139.2532  165.5001 C.ar    1  UNL1        0.0807
     31 C         140.4318  139.7577  166.8005 C.ar    1  UNL1        0.0106
     32 C         141.2888  139.7520  168.0316 C.ar    1  UNL1        0.0717
     33 C         142.6977  139.2417  167.9623 C.ar    1  UNL1        0.0062
     34 C         143.2496  138.7372  166.6620 C.ar    1  UNL1        0.0297
     35 C         142.3926  138.7429  165.4309 C.ar    1  UNL1        0.1444
     36 F         142.9444  138.2384  164.1306 F       1  UNL1       -0.2040
     37 C         140.7369  140.2565  169.3319 C.3     1  UNL1        0.4186
     38 F         140.1850  140.7610  170.6323 F       1  UNL1       -0.1659
     39 F         141.3872  139.1125  170.0518 F       1  UNL1       -0.1659
     40 F         140.0866  141.4005  168.6120 F       1  UNL1       -0.1659
     41 C         138.3804  142.1253  160.6168 C.3     1  UNL1        0.0022
     42 C         138.4424  141.1994  161.7952 C.3     1  UNL1        0.0269
     43 C         137.3768  141.2547  162.8494 C.3     1  UNL1        0.0022
@<TRIPOS>BOND
     1    41    42    1
     2    42    43    1
     3    42    25    1
     4    25    26    1
     5    26    27   am
     6    27    28    2
     7    27    30    1
     8    30    31   ar
     9    31    32   ar
    10    32    37    1
    11    37    38    1
    12    37    39    1
    13    37    40    1
    14    32    33   ar
    15    33    34   ar
    16    34    35   ar
    17    35    36    1
    18    25     1    1
    19     1     2    2
    20     1     3   am
    21     3     4    1
    22     4     5    1
    23     5     6    1
    24     6     7    1
    25     7     8    1
    26     6     9    1
    27     9    10    2
    28     9    11   am
    29    11    12    1
    30    11    13   am
    31    13    14    2
    32    13    15   am
    33    15    16    1
    34    16    17    2
    35    17    18    1
    36    18    19    2
    37    19    20    1
    38    20    21    2
    39    21    22    1
    40    22    23    2
    41    23    24    1
    42    35    30   ar
    43     8     3    1
    44    24    16    1
    45    15     6    1
    46    23    19    1
    47    26    29    1
@<TRIPOS>MOLECULE
*****
 43 47 0 0 0
SMALL
GASTEIGER

@<TRIPOS>ATOM
      1 C         140.9984  143.1143  161.7623 C.2     1  UNL1        0.2435
      2 O         139.9717  144.2003  161.6335 O.2     1  UNL1       -0.2731
      3 N         141.1707  142.1107  160.6607 N.am    1  UNL1       -0.2781
      4 C         140.3164  142.1932  159.4306 C.3     1  UNL1        0.0956
      5 C         140.4888  141.1897  158.3292 C.3     1  UNL1        0.0490
      6 C         141.5154  140.1037  158.4579 C.3     1  UNL1        0.1377
      7 C         142.3698  140.0212  159.6880 C.3     1  UNL1        0.0490
      8 C         142.1974  141.0247  160.7895 C.3     1  UNL1        0.0956
      9 C         142.4954  138.9680  158.4452 C.2     1  UNL1        0.2491
     10 O         143.4749  138.6365  159.5317 O.2     1  UNL1       -0.2727
     11 N         142.3237  138.2220  157.1551 N.am    1  UNL1       -0.2108
     12 C         143.1014  137.0136  156.7252 C.3     1  UNL1        0.1245
     13 C         141.2376  138.8967  156.3706 C.2     1  UNL1        0.3168
     14 O         140.7388  138.4813  155.0184 O.2     1  UNL1       -0.2516
     15 N         140.7381  140.0595  157.1757 N.am    1  UNL1       -0.2411
     16 C         139.6521  141.0112  156.7700 C.2     1  UNL1        0.0376
     17 C         138.2193  140.6879  157.0740 C.2     1  UNL1        0.0125
     18 C         137.1332  141.6397  156.6683 C.2     1  UNL1        0.0216
     19 C         137.4800  142.9148  155.9584 C.2     1  UNL1        0.1008
     20 N         136.6313  144.0377  155.4398 N.2     1  UNL1       -0.1482
     21 N         137.5395  145.0549  154.8153 N.2     1  UNL1       -0.1467
     22 C         138.9496  144.5608  154.9478 C.2     1  UNL1        0.1198
     23 C         138.9128  143.2382  155.6543 C.2     1  UNL1        0.0238
     24 C         139.9988  142.2864  156.0601 C.3     1  UNL1        0.0710
     25 C         141.8527  143.0318  162.9924 C.3     1  UNL1        0.1489
     26 N         141.4594  142.1231  164.1192 N.am    1  UNL1       -0.2947
     27 C         140.4480  142.5763  165.1301 C.2     1  UNL1        0.2483
     28 O         139.8300  143.9381  165.0142 O.2     1  UNL1       -0.2701
     29 H         141.8650  141.2293  164.1952 H       1  UNL1        0.1501
     30 C         140.0547  141.6675  166.2568 C.ar    1  UNL1        0.0807
     31 C         139.2515  140.4317  165.9782 C.ar    1  UNL1        0.0106
     32 C         138.8582  139.5230  167.1049 C.ar    1  UNL1        0.0717
     33 C         139.2682  139.8501  168.5103 C.ar    1  UNL1        0.0062
     34 C         140.0714  141.0859  168.7889 C.ar    1  UNL1        0.0297
     35 C         140.4646  141.9946  167.6621 C.ar    1  UNL1        0.1444
     36 F         141.2678  143.2304  167.9407 F       1  UNL1       -0.2040
     37 C         138.0550  138.2872  166.8264 C.3     1  UNL1        0.4186
     38 F         137.2518  137.0513  166.5478 F       1  UNL1       -0.1659
     39 F         137.1754  138.5939  168.0020 F       1  UNL1       -0.1659
     40 F         138.9347  137.9805  165.6507 F       1  UNL1       -0.1659
     41 C         143.0875  145.1421  163.8711 C.3     1  UNL1        0.0022
     42 C         143.1004  143.8581  163.0959 C.3     1  UNL1        0.0269
     43 C         144.3610  143.4003  162.4240 C.3     1  UNL1        0.0022
@<TRIPOS>BOND
     1    41    42    1
     2    42    43    1
     3    42    25    1
     4    25    26    1
     5    26    27   am
     6    27    28    2
     7    27    30    1
     8    30    31   ar
     9    31    32   ar
    10    32    37    1
    11    37    38    1
    12    37    39    1
    13    37    40    1
    14    32    33   ar
    15    33    34   ar
    16    34    35   ar
    17    35    36    1
    18    25     1    1
    19     1     2    2
    20     1     3   am
    21     3     4    1
    22     4     5    1
    23     5     6    1
    24     6     7    1
    25     7     8    1
    26     6     9    1
    27     9    10    2
    28     9    11   am
    29    11    12    1
    30    11    13   am
    31    13    14    2
    32    13    15   am
    33    15    16    1
    34    16    17    2
    35    17    18    1
    36    18    19    2
    37    19    20    1
    38    20    21    2
    39    21    22    1
    40    22    23    2
    41    23    24    1
    42    35    30   ar
    43     8     3    1
    44    24    16    1
    45    15     6    1
    46    23    19    1
    47    26    29    1
@<TRIPOS>MOLECULE
*****
 43 47 0 0 0
SMALL
GASTEIGER

@<TRIPOS>ATOM
      1 C         143.2722  141.1412  161.9120 C.2     1  UNL1        0.2435
      2 O         144.4698  140.2465  161.7884 O.2     1  UNL1       -0.2731
      3 N         142.3056  141.2624  160.7714 N.am    1  UNL1       -0.2781
      4 C         142.5365  140.4889  159.5072 C.3     1  UNL1        0.0956
      5 C         141.5699  140.6101  158.3666 C.3     1  UNL1        0.0490
      6 C         140.3723  141.5049  158.4903 C.3     1  UNL1        0.1377
      7 C         140.1414  142.2784  159.7545 C.3     1  UNL1        0.0490
      8 C         141.1080  142.1572  160.8951 C.3     1  UNL1        0.0956
      9 C         139.1369  142.3553  158.4682 C.2     1  UNL1        0.2491
     10 O         138.6512  143.2339  159.5827 O.2     1  UNL1       -0.2727
     11 N         138.4724  142.1730  157.1357 N.am    1  UNL1       -0.2108
     12 C         137.2056  142.8372  156.6840 C.3     1  UNL1        0.1245
     13 C         139.2972  141.2098  156.3344 C.2     1  UNL1        0.3168
     14 O         139.0000  140.7417  154.9407 O.2     1  UNL1       -0.2516
     15 N         140.4714  140.7969  157.1715 N.am    1  UNL1       -0.2411
     16 C         141.5544  139.8434  156.7620 C.2     1  UNL1        0.0376
     17 C         142.8116  140.3631  156.1298 C.2     1  UNL1        0.0125
     18 C         143.8946  139.4095  155.7203 C.2     1  UNL1        0.0216
     19 C         143.7206  137.9363  155.9428 C.2     1  UNL1        0.1008
     20 N         144.6082  136.7644  155.6448 N.2     1  UNL1       -0.1482
     21 N         143.8997  135.5206  156.0927 N.2     1  UNL1       -0.1467
     22 C         142.5742  135.9237  156.6676 C.2     1  UNL1        0.1198
     23 C         142.4635  137.4167  156.5749 C.2     1  UNL1        0.0238
     24 C         141.3804  138.3702  156.9845 C.3     1  UNL1        0.0710
     25 C         143.0413  141.9147  163.1763 C.3     1  UNL1        0.1489
     26 N         141.8973  141.5550  164.0772 N.am    1  UNL1       -0.2947
     27 C         142.0415  140.4313  165.0604 C.2     1  UNL1        0.2483
     28 O         143.3298  139.6674  165.1426 O.2     1  UNL1       -0.2701
     29 H         141.0517  142.0564  164.0233 H       1  UNL1        0.1501
     30 C         140.8975  140.0716  165.9614 C.ar    1  UNL1        0.0807
     31 C         141.0183  140.2714  167.4432 C.ar    1  UNL1        0.0106
     32 C         139.8742  139.9117  168.3442 C.ar    1  UNL1        0.0717
     33 C         138.6094  139.3521  167.7634 C.ar    1  UNL1        0.0062
     34 C         138.4887  139.1524  166.2817 C.ar    1  UNL1        0.0297
     35 C         139.6327  139.5121  165.3807 C.ar    1  UNL1        0.1444
     36 F         139.5120  139.3123  163.8990 F       1  UNL1       -0.2040
     37 C         139.9950  140.1115  169.8259 C.3     1  UNL1        0.4186
     38 F         140.1157  140.3113  171.3077 F       1  UNL1       -0.1659
     39 F         138.7526  140.9519  169.8138 F       1  UNL1       -0.1659
     40 F         141.2373  139.2710  169.8380 F       1  UNL1       -0.1659
     41 C         144.4198  144.0048  162.4822 C.3     1  UNL1        0.0022
     42 C         143.9544  143.0480  163.5396 C.3     1  UNL1        0.0269
     43 C         144.4022  143.2245  164.9603 C.3     1  UNL1        0.0022
@<TRIPOS>BOND
     1    41    42    1
     2    42    43    1
     3    42    25    1
     4    25    26    1
     5    26    27   am
     6    27    28    2
     7    27    30    1
     8    30    31   ar
     9    31    32   ar
    10    32    37    1
    11    37    38    1
    12    37    39    1
    13    37    40    1
    14    32    33   ar
    15    33    34   ar
    16    34    35   ar
    17    35    36    1
    18    25     1    1
    19     1     2    2
    20     1     3   am
    21     3     4    1
    22     4     5    1
    23     5     6    1
    24     6     7    1
    25     7     8    1
    26     6     9    1
    27     9    10    2
    28     9    11   am
    29    11    12    1
    30    11    13   am
    31    13    14    2
    32    13    15   am
    33    15    16    1
    34    16    17    2
    35    17    18    1
    36    18    19    2
    37    19    20    1
    38    20    21    2
    39    21    22    1
    40    22    23    2
    41    23    24    1
    42    35    30   ar
    43     8     3    1
    44    24    16    1
    45    15     6    1
    46    23    19    1
    47    26    29    1
@<TRIPOS>MOLECULE
*****
 43 47 0 0 0
SMALL
GASTEIGER

@<TRIPOS>ATOM
      1 C         139.8630  139.1879  160.6661 C.2     1  UNL1        0.2435
      2 O         139.0263  137.9462  160.5743 O.2     1  UNL1       -0.2731
      3 N         140.9552  139.4318  159.6672 N.am    1  UNL1       -0.2781
      4 C         141.2107  138.4341  158.5767 C.3     1  UNL1        0.0956
      5 C         142.3029  138.6781  157.5779 C.3     1  UNL1        0.0490
      6 C         143.1395  139.9197  157.6697 C.3     1  UNL1        0.1377
      7 C         142.8840  140.9174  158.7602 C.3     1  UNL1        0.0490
      8 C         141.7918  140.6734  159.7590 C.3     1  UNL1        0.0956
      9 C         144.0529  141.1091  157.6348 C.2     1  UNL1        0.2491
     10 O         144.0345  142.2633  158.5927 O.2     1  UNL1       -0.2727
     11 N         144.9880  140.9416  156.4739 N.am    1  UNL1       -0.2108
     12 C         146.0688  141.8989  156.0671 C.3     1  UNL1        0.1245
     13 C         144.6525  139.6487  155.7913 C.2     1  UNL1        0.3168
     14 O         145.3389  139.0862  154.5821 O.2     1  UNL1       -0.2516
     15 N         143.5101  139.0172  156.5303 N.am    1  UNL1       -0.2411
     16 C         142.8535  137.7122  156.1898 C.2     1  UNL1        0.0376
     17 C         141.6702  137.6859  155.2684 C.2     1  UNL1        0.0125
     18 C         141.0136  136.3809  154.9279 C.2     1  UNL1        0.0216
     19 C         141.5404  135.1022  155.5088 C.2     1  UNL1        0.1008
     20 N         141.1034  133.6754  155.3561 N.2     1  UNL1       -0.1482
     21 N         142.0167  132.8200  156.1831 N.2     1  UNL1       -0.1467
     22 C         143.0181  133.7180  156.8469 C.2     1  UNL1        0.1198
     23 C         142.7237  135.1285  156.4302 C.2     1  UNL1        0.0238
     24 C         143.3803  136.4335  156.7707 C.3     1  UNL1        0.0710
     25 C         139.6074  140.1855  161.7566 C.3     1  UNL1        0.1489
     26 N         140.4624  140.1849  162.9891 N.am    1  UNL1       -0.2947
     27 C         140.1465  139.2523  164.1207 C.2     1  UNL1        0.2483
     28 O         138.9756  138.3202  164.0197 O.2     1  UNL1       -0.2701
     29 H         141.2310  140.7967  163.0553 H       1  UNL1        0.1501
     30 C         141.0015  139.2517  165.3531 C.ar    1  UNL1        0.0807
     31 C         142.3525  138.6004  165.3284 C.ar    1  UNL1        0.0106
     32 C         143.2076  138.5998  166.5608 C.ar    1  UNL1        0.0717
     33 C         142.7115  139.2505  167.8180 C.ar    1  UNL1        0.0062
     34 C         141.3606  139.9018  167.8428 C.ar    1  UNL1        0.0297
     35 C         140.5055  139.9024  166.6103 C.ar    1  UNL1        0.1444
     36 F         139.1546  140.5537  166.6350 F       1  UNL1       -0.2040
     37 C         144.5585  137.9485  166.5361 C.3     1  UNL1        0.4186
     38 F         145.9096  137.2972  166.5114 F       1  UNL1       -0.1659
     39 F         144.1786  137.1152  167.7240 F       1  UNL1       -0.1659
     40 F         144.9385  138.7818  165.3482 F       1  UNL1       -0.1659
     41 C         138.4499  142.0887  160.4194 C.3     1  UNL1        0.0022
     42 C         138.4968  141.1838  161.6148 C.3     1  UNL1        0.0269
     43 C         137.4332  141.2772  162.6683 C.3     1  UNL1        0.0022
@<TRIPOS>BOND
     1    41    42    1
     2    42    43    1
     3    42    25    1
     4    25    26    1
     5    26    27   am
     6    27    28    2
     7    27    30    1
     8    30    31   ar
     9    31    32   ar
    10    32    37    1
    11    37    38    1
    12    37    39    1
    13    37    40    1
    14    32    33   ar
    15    33    34   ar
    16    34    35   ar
    17    35    36    1
    18    25     1    1
    19     1     2    2
    20     1     3   am
    21     3     4    1
    22     4     5    1
    23     5     6    1
    24     6     7    1
    25     7     8    1
    26     6     9    1
    27     9    10    2
    28     9    11   am
    29    11    12    1
    30    11    13   am
    31    13    14    2
    32    13    15   am
    33    15    16    1
    34    16    17    2
    35    17    18    1
    36    18    19    2
    37    19    20    1
    38    20    21    2
    39    21    22    1
    40    22    23    2
    41    23    24    1
    42    35    30   ar
    43     8     3    1
    44    24    16    1
    45    15     6    1
    46    23    19    1
    47    26    29    1
@<TRIPOS>MOLECULE
*****
 43 47 0 0 0
SMALL
GASTEIGER

@<TRIPOS>ATOM
      1 C         141.1448  143.1887  161.7969 C.2     1  UNL1        0.2435
      2 O         140.1387  144.2922  161.6553 O.2     1  UNL1       -0.2731
      3 N         141.2713  142.1471  160.7249 N.am    1  UNL1       -0.2781
      4 C         140.3918  142.2089  159.5115 C.3     1  UNL1        0.0956
      5 C         140.5183  141.1673  158.4396 C.3     1  UNL1        0.0490
      6 C         141.5245  140.0638  158.5812 C.3     1  UNL1        0.1377
      7 C         142.4040  140.0020  159.7946 C.3     1  UNL1        0.0490
      8 C         142.2774  141.0436  160.8665 C.3     1  UNL1        0.0956
      9 C         142.4796  138.9072  158.5841 C.2     1  UNL1        0.2491
     10 O         143.4759  138.5892  159.6594 O.2     1  UNL1       -0.2727
     11 N         142.2636  138.1244  157.3228 N.am    1  UNL1       -0.2108
     12 C         143.0059  136.8863  156.9155 C.3     1  UNL1        0.1245
     13 C         141.1748  138.7973  156.5405 C.2     1  UNL1        0.3168
     14 O         140.6373  138.3500  155.2135 O.2     1  UNL1       -0.2516
     15 N         140.7181  139.9958  157.3181 N.am    1  UNL1       -0.2411
     16 C         139.6436  140.9576  156.9054 C.2     1  UNL1        0.0376
     17 C         138.2081  140.6600  157.2230 C.2     1  UNL1        0.0125
     18 C         137.1337  141.6218  156.8102 C.2     1  UNL1        0.0216
     19 C         137.4946  142.8813  156.0797 C.2     1  UNL1        0.1008
     20 N         136.6593  144.0090  155.5501 N.2     1  UNL1       -0.1482
     21 N         137.5784  145.0035  154.9053 N.2     1  UNL1       -0.1467
     22 C         138.9819  144.4905  155.0362 C.2     1  UNL1        0.1198
     23 C         138.9301  143.1789  155.7621 C.2     1  UNL1        0.0238
     24 C         140.0045  142.2171  156.1749 C.3     1  UNL1        0.0710
     25 C         142.0243  143.1269  163.0103 C.3     1  UNL1        0.1489
     26 N         141.6459  142.2500  164.1670 N.am    1  UNL1       -0.2947
     27 C         140.6046  142.7070  165.1453 C.2     1  UNL1        0.2483
     28 O         139.9419  144.0407  164.9669 O.2     1  UNL1       -0.2701
     29 H         142.0809  141.3747  164.2841 H       1  UNL1        0.1501
     30 C         140.2262  141.8302  166.3020 C.ar    1  UNL1        0.0807
     31 C         140.5975  142.2301  167.6993 C.ar    1  UNL1        0.0106
     32 C         140.2191  141.3533  168.8560 C.ar    1  UNL1        0.0717
     33 C         139.4694  140.0765  168.6154 C.ar    1  UNL1        0.0062
     34 C         139.0982  139.6766  167.2182 C.ar    1  UNL1        0.0297
     35 C         139.4766  140.5534  166.0615 C.ar    1  UNL1        0.1444
     36 F         139.1054  140.1535  164.6643 F       1  UNL1       -0.2040
     37 C         140.5903  141.7532  170.2532 C.3     1  UNL1        0.4186
     38 F         140.9615  142.1532  171.6505 F       1  UNL1       -0.1659
     39 F         139.2797  142.4685  170.3967 F       1  UNL1       -0.1659
     40 F         141.9009  141.0380  170.1097 F       1  UNL1       -0.1659
     41 C         144.4632  143.5582  162.2255 C.3     1  UNL1        0.0022
     42 C         143.2824  143.9419  163.0671 C.3     1  UNL1        0.0269
     43 C         143.3595  145.1406  163.9655 C.3     1  UNL1        0.0022
@<TRIPOS>BOND
     1    41    42    1
     2    42    43    1
     3    42    25    1
     4    25    26    1
     5    26    27   am
     6    27    28    2
     7    27    30    1
     8    30    31   ar
     9    31    32   ar
    10    32    37    1
    11    37    38    1
    12    37    39    1
    13    37    40    1
    14    32    33   ar
    15    33    34   ar
    16    34    35   ar
    17    35    36    1
    18    25     1    1
    19     1     2    2
    20     1     3   am
    21     3     4    1
    22     4     5    1
    23     5     6    1
    24     6     7    1
    25     7     8    1
    26     6     9    1
    27     9    10    2
    28     9    11   am
    29    11    12    1
    30    11    13   am
    31    13    14    2
    32    13    15   am
    33    15    16    1
    34    16    17    2
    35    17    18    1
    36    18    19    2
    37    19    20    1
    38    20    21    2
    39    21    22    1
    40    22    23    2
    41    23    24    1
    42    35    30   ar
    43     8     3    1
    44    24    16    1
    45    15     6    1
    46    23    19    1
    47    26    29    1
@<TRIPOS>MOLECULE
*****
 43 47 0 0 0
SMALL
GASTEIGER

@<TRIPOS>ATOM
      1 C         140.7377  139.9033  158.7713 C.2     1  UNL1        0.2435
      2 O         141.7472  140.9442  158.3874 O.2     1  UNL1       -0.2731
      3 N         140.4483  139.6371  160.2189 N.am    1  UNL1       -0.2781
      4 C         141.1684  140.4117  161.2825 C.3     1  UNL1        0.0956
      5 C         140.8790  140.1455  162.7300 C.3     1  UNL1        0.0490
      6 C         139.8695  139.1046  163.1139 C.3     1  UNL1        0.1377
      7 C         139.1494  138.3299  162.0503 C.3     1  UNL1        0.0490
      8 C         139.4388  138.5962  160.6028 C.3     1  UNL1        0.0956
      9 C         138.8915  138.1000  163.6472 C.2     1  UNL1        0.2491
     10 O         138.0312  137.1854  162.8267 O.2     1  UNL1       -0.2727
     11 N         138.9249  138.1707  165.1453 N.am    1  UNL1       -0.2108
     12 C         138.1038  137.3392  166.0857 C.3     1  UNL1        0.1245
     13 C         139.9235  139.2190  165.5377 C.2     1  UNL1        0.3168
     14 O         140.2764  139.6197  166.9394 O.2     1  UNL1       -0.2516
     15 N         140.5073  139.7961  164.2823 N.am    1  UNL1       -0.2411
     16 C         141.5465  140.8753  164.2082 C.2     1  UNL1        0.0376
     17 C         143.0028  140.5178  164.2433 C.2     1  UNL1        0.0125
     18 C         144.0419  141.5971  164.1691 C.2     1  UNL1        0.0216
     19 C         143.6247  143.0338  164.0599 C.2     1  UNL1        0.1008
     20 N         144.4162  144.3048  163.9700 N.2     1  UNL1       -0.1482
     21 N         143.4491  145.4477  163.8794 N.2     1  UNL1       -0.1467
     22 C         142.0598  144.8831  163.9132 C.2     1  UNL1        0.1198
     23 C         142.1684  143.3912  164.0247 C.2     1  UNL1        0.0238
     24 C         141.1293  142.3120  164.0989 C.3     1  UNL1        0.0710
     25 C         140.0176  139.1287  157.7077 C.3     1  UNL1        0.1489
     26 N         140.3949  137.7032  157.4327 N.am    1  UNL1       -0.2947
     27 C         141.5757  137.3948  156.5606 C.2     1  UNL1        0.2483
     28 O         142.3792  138.5118  155.9635 O.2     1  UNL1       -0.2701
     29 H         139.8675  136.9700  157.8246 H       1  UNL1        0.1501
     30 C         141.9530  135.9693  156.2856 C.ar    1  UNL1        0.0807
     31 C         143.0303  135.3092  157.0943 C.ar    1  UNL1        0.0106
     32 C         143.4076  133.8837  156.8194 C.ar    1  UNL1        0.0717
     33 C         142.7076  133.1183  155.7357 C.ar    1  UNL1        0.0062
     34 C         141.6305  133.7784  154.9270 C.ar    1  UNL1        0.0297
     35 C         141.2532  135.2039  155.2020 C.ar    1  UNL1        0.1444
     36 F         140.1760  135.8639  154.3934 F       1  UNL1       -0.2040
     37 C         144.4848  133.2236  157.6280 C.3     1  UNL1        0.4186
     38 F         145.5620  132.5635  158.4367 F       1  UNL1       -0.1659
     39 F         144.9171  132.4481  156.4191 F       1  UNL1       -0.1659
     40 F         144.0524  133.9992  158.8369 F       1  UNL1       -0.1659
     41 C         138.7025  139.4019  155.4837 C.3     1  UNL1        0.0022
     42 C         138.9201  139.7795  156.9190 C.3     1  UNL1        0.0269
     43 C         138.0402  140.8080  157.5656 C.3     1  UNL1        0.0022
@<TRIPOS>BOND
     1    41    42    1
     2    42    43    1
     3    42    25    1
     4    25    26    1
     5    26    27   am
     6    27    28    2
     7    27    30    1
     8    30    31   ar
     9    31    32   ar
    10    32    37    1
    11    37    38    1
    12    37    39    1
    13    37    40    1
    14    32    33   ar
    15    33    34   ar
    16    34    35   ar
    17    35    36    1
    18    25     1    1
    19     1     2    2
    20     1     3   am
    21     3     4    1
    22     4     5    1
    23     5     6    1
    24     6     7    1
    25     7     8    1
    26     6     9    1
    27     9    10    2
    28     9    11   am
    29    11    12    1
    30    11    13   am
    31    13    14    2
    32    13    15   am
    33    15    16    1
    34    16    17    2
    35    17    18    1
    36    18    19    2
    37    19    20    1
    38    20    21    2
    39    21    22    1
    40    22    23    2
    41    23    24    1
    42    35    30   ar
    43     8     3    1
    44    24    16    1
    45    15     6    1
    46    23    19    1
    47    26    29    1
@<TRIPOS>MOLECULE
*****
 43 47 0 0 0
SMALL
GASTEIGER

@<TRIPOS>ATOM
      1 C         141.8596  141.5656  161.4743 C.2     1  UNL1        0.2435
      2 O         140.5911  140.7903  161.6742 O.2     1  UNL1       -0.2731
      3 N         142.6406  141.4112  160.2029 N.am    1  UNL1       -0.2781
      4 C         142.1530  140.4816  159.1314 C.3     1  UNL1        0.0956
      5 C         142.9339  140.3273  157.8601 C.3     1  UNL1        0.0490
      6 C         144.2024  141.1026  157.6603 C.3     1  UNL1        0.1377
      7 C         144.6900  142.0321  158.7318 C.3     1  UNL1        0.0490
      8 C         143.9091  142.1864  160.0031 C.3     1  UNL1        0.0956
      9 C         145.4817  141.8081  157.3202 C.2     1  UNL1        0.2491
     10 O         146.2046  142.7919  158.1917 O.2     1  UNL1       -0.2727
     11 N         145.9112  141.3572  155.9555 N.am    1  UNL1       -0.2108
     12 C         147.1389  141.8108  155.2228 C.3     1  UNL1        0.1245
     13 C         144.8973  140.3729  155.4522 C.2     1  UNL1        0.3168
     14 O         144.9331  139.6695  154.1279 O.2     1  UNL1       -0.2516
     15 N         143.8412  140.2155  156.5058 N.am    1  UNL1       -0.2411
     16 C         142.6357  139.3271  156.4201 C.2     1  UNL1        0.0376
     17 C         142.7077  137.9147  156.9200 C.2     1  UNL1        0.0125
     18 C         141.5021  137.0264  156.8342 C.2     1  UNL1        0.0216
     19 C         140.2244  137.5505  156.2485 C.2     1  UNL1        0.1008
     20 N         138.8831  136.9140  156.0344 N.2     1  UNL1       -0.1482
     21 N         137.9822  137.9330  155.4021 N.2     1  UNL1       -0.1467
     22 C         138.7666  139.1993  155.2255 C.2     1  UNL1        0.1198
     23 C         140.1524  138.9629  155.7486 C.2     1  UNL1        0.0238
     24 C         141.3580  139.8512  155.8344 C.3     1  UNL1        0.0710
     25 C         142.3472  142.4951  162.5458 C.3     1  UNL1        0.1489
     26 N         142.7183  141.9553  163.8952 N.am    1  UNL1       -0.2947
     27 C         141.7185  141.9787  165.0133 C.2     1  UNL1        0.2483
     28 O         140.3476  142.5420  164.7819 O.2     1  UNL1       -0.2701
     29 H         143.6180  141.5856  164.0471 H       1  UNL1        0.1501
     30 C         142.0895  141.4389  166.3627 C.ar    1  UNL1        0.0807
     31 C         142.4308  142.3807  167.4793 C.ar    1  UNL1        0.0106
     32 C         142.8018  141.8409  168.8287 C.ar    1  UNL1        0.0717
     33 C         142.8317  140.3593  169.0615 C.ar    1  UNL1        0.0062
     34 C         142.4905  139.4176  167.9449 C.ar    1  UNL1        0.0297
     35 C         142.1194  139.9574  166.5955 C.ar    1  UNL1        0.1444
     36 F         141.7782  139.0158  165.4789 F       1  UNL1       -0.2040
     37 C         143.1430  142.7825  169.9453 C.3     1  UNL1        0.4186
     38 F         143.4843  143.7242  171.0619 F       1  UNL1       -0.1659
     39 F         144.5645  142.3047  169.9138 F       1  UNL1       -0.1659
     40 F         141.7215  143.2603  169.9767 F       1  UNL1       -0.1659
     41 C         141.4572  144.6434  161.3869 C.3     1  UNL1        0.0022
     42 C         142.4637  143.9646  162.2680 C.3     1  UNL1        0.0269
     43 C         143.5866  144.7552  162.8712 C.3     1  UNL1        0.0022
@<TRIPOS>BOND
     1    41    42    1
     2    42    43    1
     3    42    25    1
     4    25    26    1
     5    26    27   am
     6    27    28    2
     7    27    30    1
     8    30    31   ar
     9    31    32   ar
    10    32    37    1
    11    37    38    1
    12    37    39    1
    13    37    40    1
    14    32    33   ar
    15    33    34   ar
    16    34    35   ar
    17    35    36    1
    18    25     1    1
    19     1     2    2
    20     1     3   am
    21     3     4    1
    22     4     5    1
    23     5     6    1
    24     6     7    1
    25     7     8    1
    26     6     9    1
    27     9    10    2
    28     9    11   am
    29    11    12    1
    30    11    13   am
    31    13    14    2
    32    13    15   am
    33    15    16    1
    34    16    17    2
    35    17    18    1
    36    18    19    2
    37    19    20    1
    38    20    21    2
    39    21    22    1
    40    22    23    2
    41    23    24    1
    42    35    30   ar
    43     8     3    1
    44    24    16    1
    45    15     6    1
    46    23    19    1
    47    26    29    1
@<TRIPOS>MOLECULE
*****
 43 47 0 0 0
SMALL
GASTEIGER

@<TRIPOS>ATOM
      1 C         141.1749  138.9469  163.1409 C.2     1  UNL1        0.2435
      2 O         142.0888  137.9295  162.5247 O.2     1  UNL1       -0.2731
      3 N         141.0633  140.3166  162.5395 N.am    1  UNL1       -0.2781
      4 C         141.8655  140.6688  161.3221 C.3     1  UNL1        0.0956
      5 C         141.7539  142.0385  160.7208 C.3     1  UNL1        0.0490
      6 C         140.8400  143.0559  161.3370 C.3     1  UNL1        0.1377
      7 C         140.0378  142.7036  162.5544 C.3     1  UNL1        0.0490
      8 C         140.1494  141.3340  163.1557 C.3     1  UNL1        0.0956
      9 C         139.9728  144.1716  161.8400 C.2     1  UNL1        0.2491
     10 O         139.0650  144.1136  163.0327 O.2     1  UNL1       -0.2727
     11 N         140.1728  145.3557  160.9409 N.am    1  UNL1       -0.2108
     12 C         139.5001  146.6895  161.0767 C.3     1  UNL1        0.1245
     13 C         141.1637  144.9716  159.8822 C.2     1  UNL1        0.3168
     14 O         141.6558  145.8539  158.7736 O.2     1  UNL1       -0.2516
     15 N         141.5760  143.5503  160.1270 N.am    1  UNL1       -0.2411
     16 C         142.5528  142.7618  159.3060 C.2     1  UNL1        0.0376
     17 C         144.0194  142.8320  159.6130 C.2     1  UNL1        0.0125
     18 C         144.9961  142.0435  158.7920 C.2     1  UNL1        0.0216
     19 C         144.5063  141.1846  157.6638 C.2     1  UNL1        0.1008
     20 N         145.2269  140.3018  156.6885 N.2     1  UNL1       -0.1482
     21 N         144.2057  139.6859  155.7787 N.2     1  UNL1       -0.1467
     22 C         142.8540  140.1881  156.1917 C.2     1  UNL1        0.1198
     23 C         143.0398  141.1144  157.3568 C.2     1  UNL1        0.0238
     24 C         142.0631  141.9029  158.1779 C.3     1  UNL1        0.0710
     25 C         140.3726  138.5947  164.3583 C.3     1  UNL1        0.1489
     26 N         140.8219  139.0578  165.7125 N.am    1  UNL1       -0.2947
     27 C         139.9852  140.0319  166.4878 C.2     1  UNL1        0.2483
     28 O         138.6992  140.5429  165.9089 O.2     1  UNL1       -0.2701
     29 H         141.6660  138.7224  166.0924 H       1  UNL1        0.1501
     30 C         140.4345  140.4950  167.8419 C.ar    1  UNL1        0.0807
     31 C         141.7690  141.1611  168.0021 C.ar    1  UNL1        0.0106
     32 C         142.2183  141.6242  169.3562 C.ar    1  UNL1        0.0717
     33 C         141.3331  141.4213  170.5501 C.ar    1  UNL1        0.0062
     34 C         139.9987  140.7553  170.3899 C.ar    1  UNL1        0.0297
     35 C         139.5494  140.2922  169.0358 C.ar    1  UNL1        0.1444
     36 F         138.2150  139.6262  168.8755 F       1  UNL1       -0.2040
     37 C         143.5528  142.2902  169.5164 C.3     1  UNL1        0.4186
     38 F         144.8873  142.9562  169.6766 F       1  UNL1       -0.1659
     39 F         143.7388  142.2755  168.0281 F       1  UNL1       -0.1659
     40 F         143.3667  142.3048  171.0047 F       1  UNL1       -0.1659
     41 C         138.4600  137.6384  162.8826 C.3     1  UNL1        0.0022
     42 C         139.1210  137.7793  164.2217 C.3     1  UNL1        0.0269
     43 C         138.5303  137.1048  165.4243 C.3     1  UNL1        0.0022
@<TRIPOS>BOND
     1    41    42    1
     2    42    43    1
     3    42    25    1
     4    25    26    1
     5    26    27   am
     6    27    28    2
     7    27    30    1
     8    30    31   ar
     9    31    32   ar
    10    32    37    1
    11    37    38    1
    12    37    39    1
    13    37    40    1
    14    32    33   ar
    15    33    34   ar
    16    34    35   ar
    17    35    36    1
    18    25     1    1
    19     1     2    2
    20     1     3   am
    21     3     4    1
    22     4     5    1
    23     5     6    1
    24     6     7    1
    25     7     8    1
    26     6     9    1
    27     9    10    2
    28     9    11   am
    29    11    12    1
    30    11    13   am
    31    13    14    2
    32    13    15   am
    33    15    16    1
    34    16    17    2
    35    17    18    1
    36    18    19    2
    37    19    20    1
    38    20    21    2
    39    21    22    1
    40    22    23    2
    41    23    24    1
    42    35    30   ar
    43     8     3    1
    44    24    16    1
    45    15     6    1
    46    23    19    1
    47    26    29    1
