@<TRIPOS>MOLECULE
*****
 29 33 0 0 0
SMALL
GASTEIGER

@<TRIPOS>ATOM
      1 C         140.2831  137.7414  162.7737 C.3     1  UNL1        0.1467
      2 C         138.0860  140.4635  158.2344 C.3     1  UNL1        0.0896
      3 N         138.4850  139.8755  159.5554 N.3     1  UNL1       -0.2715
      4 C         137.7489  140.2652  160.8029 C.3     1  UNL1        0.0725
      5 C         138.1479  139.6772  162.1239 C.3     1  UNL1        0.0238
      6 C         139.2830  138.6994  162.1974 C.3     1  UNL1        0.0489
      7 C         140.0191  138.3097  160.9499 C.3     1  UNL1        0.0238
      8 C         139.6201  138.8977  159.6289 C.3     1  UNL1        0.0725
      9 C         138.8942  138.7565  163.6451 C.ar    1  UNL1       -0.0202
     10 C         138.8590  137.4992  164.4623 C.ar    1  UNL1       -0.0019
     11 C         138.4702  137.5562  165.9099 C.ar    1  UNL1        0.0293
     12 C         138.1167  138.8707  166.5402 C.ar    1  UNL1        0.1401
     13 F         137.7279  138.9277  167.9879 F       1  UNL1       -0.2042
     14 C         138.1519  140.1280  165.7230 C.ar    1  UNL1        0.0293
     15 C         138.5407  140.0709  164.2754 C.ar    1  UNL1       -0.0019
     16 O         141.7460  137.9301  162.5008 O.3     1  UNL1       -0.3470
     17 C         142.6673  138.3498  163.6077 C.3     1  UNL1        0.1874
     18 C         142.2647  139.4529  164.5410 C.ar    1  UNL1        0.0881
     19 C         142.0227  139.1571  165.9915 C.ar    1  UNL1        0.0130
     20 C         141.6201  140.2603  166.9248 C.ar    1  UNL1       -0.0201
     21 C         141.4593  141.6591  166.4076 C.ar    1  UNL1        0.0104
     22 C         141.7013  141.9548  164.9570 C.ar    1  UNL1        0.0580
     23 N         142.1040  140.8517  164.0237 N.ar    1  UNL1       -0.2515
     24 C         141.3781  139.9646  168.3754 C.3     1  UNL1        0.0224
     25 C         141.8841  139.4974  169.7078 C.3     1  UNL1        0.0047
     26 C         140.4529  139.9198  169.5552 C.3     1  UNL1        0.0047
     27 C         141.5406  143.3536  164.4399 C.3     1  UNL1        0.0403
     28 C         140.6569  144.5052  164.0615 C.3     1  UNL1        0.0063
     29 C         142.1456  144.6249  163.9224 C.3     1  UNL1        0.0063
@<TRIPOS>BOND
     1     2     3    1
     2     3     4    1
     3     4     5    1
     4     5     6    1
     5     6     1    1
     6     1    16    1
     7    16    17    1
     8    17    18    1
     9    18    19   ar
    10    19    20   ar
    11    20    24    1
    12    24    25    1
    13    25    26    1
    14    20    21   ar
    15    21    22   ar
    16    22    27    1
    17    27    28    1
    18    28    29    1
    19    22    23   ar
    20     6     9    1
    21     9    10   ar
    22    10    11   ar
    23    11    12   ar
    24    12    13    1
    25    12    14   ar
    26    14    15   ar
    27     6     7    1
    28     7     8    1
    29     8     3    1
    30    23    18   ar
    31    15     9   ar
    32    26    24    1
    33    29    27    1
@<TRIPOS>MOLECULE
*****
 29 33 0 0 0
SMALL
GASTEIGER

@<TRIPOS>ATOM
      1 C         142.0851  137.9898  163.3543 C.3     1  UNL1        0.1467
      2 C         141.2096  138.4056  157.7060 C.3     1  UNL1        0.0896
      3 N         141.1932  138.3555  159.2051 N.3     1  UNL1       -0.2715
      4 C         139.9226  138.6363  159.9511 C.3     1  UNL1        0.0725
      5 C         139.9062  138.5862  161.4502 C.3     1  UNL1        0.0238
      6 C         141.1605  138.2553  162.2032 C.3     1  UNL1        0.0489
      7 C         142.4312  137.9744  161.4573 C.3     1  UNL1        0.0238
      8 C         142.4475  138.0245  159.9582 C.3     1  UNL1        0.0725
      9 C         140.2109  138.4440  163.3490 C.ar    1  UNL1       -0.0202
     10 C         140.0664  137.3716  164.3878 C.ar    1  UNL1       -0.0019
     11 C         139.1169  137.5602  165.5335 C.ar    1  UNL1        0.0293
     12 C         138.3118  138.8213  165.6404 C.ar    1  UNL1        0.1401
     13 F         137.3622  139.0100  166.7862 F       1  UNL1       -0.2042
     14 C         138.4563  139.8938  164.6017 C.ar    1  UNL1        0.0293
     15 C         139.4059  139.7051  163.4559 C.ar    1  UNL1       -0.0019
     16 O         143.2533  138.8974  163.6026 O.3     1  UNL1       -0.3470
     17 C         143.4753  139.4776  164.9679 C.3     1  UNL1        0.1874
     18 C         142.4280  140.3526  165.5903 C.ar    1  UNL1        0.0881
     19 C         141.8147  139.9694  166.9046 C.ar    1  UNL1        0.0130
     20 C         140.7674  140.8445  167.5269 C.ar    1  UNL1       -0.0201
     21 C         140.3333  142.1027  166.8351 C.ar    1  UNL1        0.0104
     22 C         140.9466  142.4859  165.5209 C.ar    1  UNL1        0.0580
     23 N         141.9939  141.6108  164.8985 N.ar    1  UNL1       -0.2515
     24 C         140.1541  140.4614  168.8411 C.3     1  UNL1        0.0224
     25 C         140.3065  140.0089  170.2630 C.3     1  UNL1        0.0047
     26 C         138.9393  140.2505  169.6954 C.3     1  UNL1        0.0047
     27 C         140.5125  143.7440  164.8292 C.3     1  UNL1        0.0403
     28 C         140.8010  144.8725  163.8839 C.3     1  UNL1        0.0063
     29 C         139.4725  144.7948  164.5761 C.3     1  UNL1        0.0063
@<TRIPOS>BOND
     1     2     3    1
     2     3     4    1
     3     4     5    1
     4     5     6    1
     5     6     1    1
     6     1    16    1
     7    16    17    1
     8    17    18    1
     9    18    19   ar
    10    19    20   ar
    11    20    24    1
    12    24    25    1
    13    25    26    1
    14    20    21   ar
    15    21    22   ar
    16    22    27    1
    17    27    28    1
    18    28    29    1
    19    22    23   ar
    20     6     9    1
    21     9    10   ar
    22    10    11   ar
    23    11    12   ar
    24    12    13    1
    25    12    14   ar
    26    14    15   ar
    27     6     7    1
    28     7     8    1
    29     8     3    1
    30    23    18   ar
    31    15     9   ar
    32    26    24    1
    33    29    27    1
@<TRIPOS>MOLECULE
*****
 29 33 0 0 0
SMALL
GASTEIGER

@<TRIPOS>ATOM
      1 C         141.7610  138.1211  163.6242 C.3     1  UNL1        0.1467
      2 C         140.5753  138.5801  158.0363 C.3     1  UNL1        0.0896
      3 N         140.6387  138.5046  159.5330 N.3     1  UNL1       -0.2715
      4 C         139.3946  138.7024  160.3473 C.3     1  UNL1        0.0725
      5 C         139.4580  138.6269  161.8441 C.3     1  UNL1        0.0238
      6 C         140.7655  138.3537  162.5265 C.3     1  UNL1        0.0489
      7 C         142.0096  138.1559  161.7122 C.3     1  UNL1        0.0238
      8 C         141.9462  138.2314  160.2155 C.3     1  UNL1        0.0725
      9 C         139.8671  138.4707  163.7221 C.ar    1  UNL1       -0.0202
     10 C         139.0661  139.7201  163.9389 C.ar    1  UNL1       -0.0019
     11 C         138.1677  139.8372  165.1344 C.ar    1  UNL1        0.0293
     12 C         138.0704  138.7046  166.1131 C.ar    1  UNL1        0.1401
     13 F         137.1721  138.8216  167.3086 F       1  UNL1       -0.2042
     14 C         138.8715  137.4551  165.8963 C.ar    1  UNL1        0.0293
     15 C         139.7699  137.3381  164.7008 C.ar    1  UNL1       -0.0019
     16 O         143.0673  138.8584  163.6206 O.3     1  UNL1       -0.3470
     17 C         143.4302  139.7468  164.7736 C.3     1  UNL1        0.1874
     18 C         142.3691  140.5524  165.4626 C.ar    1  UNL1        0.0881
     19 C         141.8303  141.7934  164.8146 C.ar    1  UNL1        0.0130
     20 C         140.7692  142.5990  165.5037 C.ar    1  UNL1       -0.0201
     21 C         140.2467  142.1638  166.8407 C.ar    1  UNL1        0.0104
     22 C         140.7854  140.9228  167.4887 C.ar    1  UNL1        0.0580
     23 N         141.8466  140.1171  166.7997 N.ar    1  UNL1       -0.2515
     24 C         140.2304  143.8400  164.8558 C.3     1  UNL1        0.0224
     25 C         140.3698  144.9478  163.8542 C.3     1  UNL1        0.0047
     26 C         139.1577  144.8816  164.7353 C.3     1  UNL1        0.0047
     27 C         140.2630  140.4876  168.8257 C.3     1  UNL1        0.0403
     28 C         140.4997  139.8901  170.1811 C.3     1  UNL1        0.0063
     29 C         139.1215  140.3310  169.7861 C.3     1  UNL1        0.0063
@<TRIPOS>BOND
     1     2     3    1
     2     3     4    1
     3     4     5    1
     4     5     6    1
     5     6     1    1
     6     1    16    1
     7    16    17    1
     8    17    18    1
     9    18    19   ar
    10    19    20   ar
    11    20    24    1
    12    24    25    1
    13    25    26    1
    14    20    21   ar
    15    21    22   ar
    16    22    27    1
    17    27    28    1
    18    28    29    1
    19    22    23   ar
    20     6     9    1
    21     9    10   ar
    22    10    11   ar
    23    11    12   ar
    24    12    13    1
    25    12    14   ar
    26    14    15   ar
    27     6     7    1
    28     7     8    1
    29     8     3    1
    30    23    18   ar
    31    15     9   ar
    32    26    24    1
    33    29    27    1
@<TRIPOS>MOLECULE
*****
 29 33 0 0 0
SMALL
GASTEIGER

@<TRIPOS>ATOM
      1 C         144.5769  140.7115  162.5425 C.3     1  UNL1        0.1467
      2 C         142.2216  138.1289  158.0010 C.3     1  UNL1        0.0896
      3 N         142.7075  138.6363  159.3263 N.3     1  UNL1       -0.2715
      4 C         142.2427  137.9849  160.5950 C.3     1  UNL1        0.0725
      5 C         142.7286  138.4922  161.9203 C.3     1  UNL1        0.0238
      6 C         143.6793  139.6510  161.9770 C.3     1  UNL1        0.0489
      7 C         144.1442  140.3024  160.7083 C.3     1  UNL1        0.0238
      8 C         143.6583  139.7951  159.3830 C.3     1  UNL1        0.0725
      9 C         143.5262  139.3679  163.4421 C.ar    1  UNL1       -0.0202
     10 C         144.7405  139.1434  164.2935 C.ar    1  UNL1       -0.0019
     11 C         144.5875  138.8603  165.7585 C.ar    1  UNL1        0.0293
     12 C         143.2200  138.8016  166.3721 C.ar    1  UNL1        0.1401
     13 F         143.0668  138.5184  167.8372 F       1  UNL1       -0.2042
     14 C         142.0056  139.0260  165.5208 C.ar    1  UNL1        0.0293
     15 C         142.1587  139.3092  164.0557 C.ar    1  UNL1       -0.0019
     16 O         144.2807  142.1595  162.2866 O.3     1  UNL1       -0.3470
     17 C         144.1965  143.1220  163.4340 C.3     1  UNL1        0.1874
     18 C         143.1705  142.9192  164.5092 C.ar    1  UNL1        0.0881
     19 C         143.6041  142.5958  165.9083 C.ar    1  UNL1        0.0130
     20 C         142.5780  142.3931  166.9835 C.ar    1  UNL1       -0.0201
     21 C         141.1184  142.5136  166.6597 C.ar    1  UNL1        0.0104
     22 C         140.6848  142.8369  165.2606 C.ar    1  UNL1        0.0580
     23 N         141.7108  143.0397  164.1853 N.ar    1  UNL1       -0.2515
     24 C         143.0116  142.0697  168.3827 C.3     1  UNL1        0.0224
     25 C         143.7701  142.4337  169.6244 C.3     1  UNL1        0.0047
     26 C         143.0039  141.1455  169.5641 C.3     1  UNL1        0.0047
     27 C         139.2251  142.9575  164.9368 C.3     1  UNL1        0.0403
     28 C         137.9338  142.3275  164.5055 C.3     1  UNL1        0.0063
     29 C         137.9881  143.7959  164.8070 C.3     1  UNL1        0.0063
@<TRIPOS>BOND
     1     2     3    1
     2     3     4    1
     3     4     5    1
     4     5     6    1
     5     6     1    1
     6     1    16    1
     7    16    17    1
     8    17    18    1
     9    18    19   ar
    10    19    20   ar
    11    20    24    1
    12    24    25    1
    13    25    26    1
    14    20    21   ar
    15    21    22   ar
    16    22    27    1
    17    27    28    1
    18    28    29    1
    19    22    23   ar
    20     6     9    1
    21     9    10   ar
    22    10    11   ar
    23    11    12   ar
    24    12    13    1
    25    12    14   ar
    26    14    15   ar
    27     6     7    1
    28     7     8    1
    29     8     3    1
    30    23    18   ar
    31    15     9   ar
    32    26    24    1
    33    29    27    1
@<TRIPOS>MOLECULE
*****
 29 33 0 0 0
SMALL
GASTEIGER

@<TRIPOS>ATOM
      1 C         141.9692  137.8505  163.1279 C.3     1  UNL1        0.1467
      2 C         143.4983  139.6713  157.9137 C.3     1  UNL1        0.0896
      3 N         143.1901  139.4164  159.3594 N.3     1  UNL1       -0.2715
      4 C         143.5322  140.4487  160.3925 C.3     1  UNL1        0.0725
      5 C         143.2240  140.1937  161.8382 C.3     1  UNL1        0.0238
      6 C         142.5736  138.9066  162.2507 C.3     1  UNL1        0.0489
      7 C         142.2315  137.8744  161.2176 C.3     1  UNL1        0.0238
      8 C         142.5398  138.1293  159.7719 C.3     1  UNL1        0.0725
      9 C         142.7059  139.5721  163.5886 C.ar    1  UNL1       -0.0202
     10 C         142.4524  141.0444  163.7221 C.ar    1  UNL1       -0.0019
     11 C         142.5846  141.7100  165.0598 C.ar    1  UNL1        0.0293
     12 C         142.9703  140.9031  166.2640 C.ar    1  UNL1        0.1401
     13 F         143.1025  141.5686  167.6018 F       1  UNL1       -0.2042
     14 C         143.2238  139.4307  166.1306 C.ar    1  UNL1        0.0293
     15 C         143.0916  138.7652  164.7927 C.ar    1  UNL1       -0.0019
     16 O         140.6762  137.1992  162.7353 O.3     1  UNL1       -0.3470
     17 C         139.4113  137.5438  163.4642 C.3     1  UNL1        0.1874
     18 C         139.3150  138.8279  164.2336 C.ar    1  UNL1        0.0881
     19 C         139.5802  138.8393  165.7099 C.ar    1  UNL1        0.0130
     20 C         139.4839  140.1233  166.4792 C.ar    1  UNL1       -0.0201
     21 C         139.1225  141.3960  165.7724 C.ar    1  UNL1        0.0104
     22 C         138.8574  141.3846  164.2960 C.ar    1  UNL1        0.0580
     23 N         138.9536  140.1005  163.5266 N.ar    1  UNL1       -0.2515
     24 C         139.7491  140.1348  167.9557 C.3     1  UNL1        0.0224
     25 C         140.6777  139.9028  169.1105 C.3     1  UNL1        0.0047
     26 C         139.2796  140.3867  169.3578 C.3     1  UNL1        0.0047
     27 C         138.4959  142.6572  163.5891 C.3     1  UNL1        0.0403
     28 C         137.8592  143.3628  162.4285 C.3     1  UNL1        0.0063
     29 C         138.5065  144.1558  163.5250 C.3     1  UNL1        0.0063
@<TRIPOS>BOND
     1     2     3    1
     2     3     4    1
     3     4     5    1
     4     5     6    1
     5     6     1    1
     6     1    16    1
     7    16    17    1
     8    17    18    1
     9    18    19   ar
    10    19    20   ar
    11    20    24    1
    12    24    25    1
    13    25    26    1
    14    20    21   ar
    15    21    22   ar
    16    22    27    1
    17    27    28    1
    18    28    29    1
    19    22    23   ar
    20     6     9    1
    21     9    10   ar
    22    10    11   ar
    23    11    12   ar
    24    12    13    1
    25    12    14   ar
    26    14    15   ar
    27     6     7    1
    28     7     8    1
    29     8     3    1
    30    23    18   ar
    31    15     9   ar
    32    26    24    1
    33    29    27    1
@<TRIPOS>MOLECULE
*****
 29 33 0 0 0
SMALL
GASTEIGER

@<TRIPOS>ATOM
      1 C         138.1647  139.9519  163.5981 C.3     1  UNL1        0.1467
      2 C         141.0239  138.8958  158.7451 C.3     1  UNL1        0.0896
      3 N         140.3718  139.4057  159.9960 N.3     1  UNL1       -0.2715
      4 C         140.5889  140.8250  160.4300 C.3     1  UNL1        0.0725
      5 C         139.9368  141.3349  161.6808 C.3     1  UNL1        0.0238
      6 C         139.0675  140.4256  162.4977 C.3     1  UNL1        0.0489
      7 C         138.8504  139.0063  162.0637 C.3     1  UNL1        0.0238
      8 C         139.5025  138.4963  160.8129 C.3     1  UNL1        0.0725
      9 C         138.9711  141.6804  163.3139 C.ar    1  UNL1       -0.0202
     10 C         140.2188  142.3953  163.7406 C.ar    1  UNL1       -0.0019
     11 C         140.1225  143.6501  164.5567 C.ar    1  UNL1        0.0293
     12 C         138.7783  144.1901  164.9461 C.ar    1  UNL1        0.1401
     13 F         138.6819  145.4450  165.7622 F       1  UNL1       -0.2042
     14 C         137.5305  143.4753  164.5194 C.ar    1  UNL1        0.0293
     15 C         137.6269  142.2204  163.7033 C.ar    1  UNL1       -0.0019
     16 O         138.5185  138.7228  164.3816 O.3     1  UNL1       -0.3470
     17 C         138.9709  138.8460  165.8065 C.3     1  UNL1        0.1874
     18 C         140.1508  139.7074  166.1469 C.ar    1  UNL1        0.0881
     19 C         140.0565  140.6997  167.2679 C.ar    1  UNL1        0.0130
     20 C         141.2364  141.5610  167.6082 C.ar    1  UNL1       -0.0201
     21 C         142.5106  141.4301  166.8277 C.ar    1  UNL1        0.0104
     22 C         142.6049  140.4378  165.7067 C.ar    1  UNL1        0.0580
     23 N         141.4250  139.5764  165.3663 N.ar    1  UNL1       -0.2515
     24 C         141.1422  142.5533  168.7292 C.3     1  UNL1        0.0224
     25 C         141.7387  143.2033  169.9422 C.3     1  UNL1        0.0047
     26 C         140.3823  143.6221  169.4575 C.3     1  UNL1        0.0047
     27 C         143.8791  140.3068  164.9262 C.3     1  UNL1        0.0403
     28 C         145.0485  140.9405  164.2325 C.3     1  UNL1        0.0063
     29 C         144.9168  139.4467  164.2680 C.3     1  UNL1        0.0063
@<TRIPOS>BOND
     1     2     3    1
     2     3     4    1
     3     4     5    1
     4     5     6    1
     5     6     1    1
     6     1    16    1
     7    16    17    1
     8    17    18    1
     9    18    19   ar
    10    19    20   ar
    11    20    24    1
    12    24    25    1
    13    25    26    1
    14    20    21   ar
    15    21    22   ar
    16    22    27    1
    17    27    28    1
    18    28    29    1
    19    22    23   ar
    20     6     9    1
    21     9    10   ar
    22    10    11   ar
    23    11    12   ar
    24    12    13    1
    25    12    14   ar
    26    14    15   ar
    27     6     7    1
    28     7     8    1
    29     8     3    1
    30    23    18   ar
    31    15     9   ar
    32    26    24    1
    33    29    27    1
@<TRIPOS>MOLECULE
*****
 29 33 0 0 0
SMALL
GASTEIGER

@<TRIPOS>ATOM
      1 C         140.3700  137.7513  162.5087 C.3     1  UNL1        0.1467
      2 C         138.1908  140.5383  158.0003 C.3     1  UNL1        0.0896
      3 N         138.5804  139.9264  159.3132 N.3     1  UNL1       -0.2715
      4 C         137.8163  140.2705  160.5572 C.3     1  UNL1        0.0725
      5 C         138.2060  139.6586  161.8702 C.3     1  UNL1        0.0238
      6 C         139.3597  138.7026  161.9390 C.3     1  UNL1        0.0489
      7 C         140.1238  138.3584  160.6950 C.3     1  UNL1        0.0238
      8 C         139.7342  138.9703  159.3821 C.3     1  UNL1        0.0725
      9 C         138.9465  138.7164  163.3810 C.ar    1  UNL1       -0.0202
     10 C         138.9634  137.4460  164.1782 C.ar    1  UNL1       -0.0019
     11 C         138.5501  137.4597  165.6201 C.ar    1  UNL1        0.0293
     12 C         138.1199  138.7440  166.2647 C.ar    1  UNL1        0.1401
     13 F         137.7067  138.7577  167.7066 F       1  UNL1       -0.2042
     14 C         138.1030  140.0145  165.4675 C.ar    1  UNL1        0.0293
     15 C         138.5163  140.0007  164.0256 C.ar    1  UNL1       -0.0019
     16 O         141.8335  137.9838  162.2763 O.3     1  UNL1       -0.3470
     17 C         142.7038  138.4663  163.3988 C.3     1  UNL1        0.1874
     18 C         142.2894  139.6580  164.2101 C.ar    1  UNL1        0.0881
     19 C         142.3382  141.0302  163.6061 C.ar    1  UNL1        0.0130
     20 C         141.9238  142.2218  164.4174 C.ar    1  UNL1       -0.0201
     21 C         141.4607  142.0414  165.8326 C.ar    1  UNL1        0.0104
     22 C         141.4119  140.6692  166.4366 C.ar    1  UNL1        0.0580
     23 N         141.8263  139.4775  165.6254 N.ar    1  UNL1       -0.2515
     24 C         141.9726  143.5941  163.8134 C.3     1  UNL1        0.0224
     25 C         141.7160  145.0683  163.9160 C.3     1  UNL1        0.0047
     26 C         142.3137  144.4964  162.6648 C.3     1  UNL1        0.0047
     27 C         140.9488  140.4887  167.8519 C.3     1  UNL1        0.0403
     28 C         139.9565  140.7733  168.9402 C.3     1  UNL1        0.0063
     29 C         141.1387  139.8918  169.2148 C.3     1  UNL1        0.0063
@<TRIPOS>BOND
     1     2     3    1
     2     3     4    1
     3     4     5    1
     4     5     6    1
     5     6     1    1
     6     1    16    1
     7    16    17    1
     8    17    18    1
     9    18    19   ar
    10    19    20   ar
    11    20    24    1
    12    24    25    1
    13    25    26    1
    14    20    21   ar
    15    21    22   ar
    16    22    27    1
    17    27    28    1
    18    28    29    1
    19    22    23   ar
    20     6     9    1
    21     9    10   ar
    22    10    11   ar
    23    11    12   ar
    24    12    13    1
    25    12    14   ar
    26    14    15   ar
    27     6     7    1
    28     7     8    1
    29     8     3    1
    30    23    18   ar
    31    15     9   ar
    32    26    24    1
    33    29    27    1
@<TRIPOS>MOLECULE
*****
 29 33 0 0 0
SMALL
GASTEIGER

@<TRIPOS>ATOM
      1 C         141.7542  137.7884  163.1215 C.3     1  UNL1        0.1467
      2 C         143.4896  139.6469  157.9858 C.3     1  UNL1        0.0896
      3 N         143.1437  139.3713  159.4191 N.3     1  UNL1       -0.2715
      4 C         143.5537  140.3393  160.4890 C.3     1  UNL1        0.0725
      5 C         143.2078  140.0638  161.9223 C.3     1  UNL1        0.0238
      6 C         142.4519  138.8202  162.2857 C.3     1  UNL1        0.0489
      7 C         142.0419  137.8522  161.2158 C.3     1  UNL1        0.0238
      8 C         142.3878  138.1278  159.7825 C.3     1  UNL1        0.0725
      9 C         142.6197  139.4299  163.6460 C.ar    1  UNL1       -0.0202
     10 C         142.9209  138.5563  164.8275 C.ar    1  UNL1       -0.0019
     11 C         143.0886  139.1659  166.1877 C.ar    1  UNL1        0.0293
     12 C         142.9552  140.6492  166.3663 C.ar    1  UNL1        0.1401
     13 F         143.1229  141.2589  167.7266 F       1  UNL1       -0.2042
     14 C         142.6539  141.5229  165.1849 C.ar    1  UNL1        0.0293
     15 C         142.4862  140.9132  163.8246 C.ar    1  UNL1       -0.0019
     16 O         140.3983  137.2889  162.7191 O.3     1  UNL1       -0.3470
     17 C         139.1940  137.6445  163.5398 C.3     1  UNL1        0.1874
     18 C         139.1742  138.9200  164.3289 C.ar    1  UNL1        0.0881
     19 C         138.9041  140.2244  163.6393 C.ar    1  UNL1        0.0130
     20 C         138.8843  141.4999  164.4284 C.ar    1  UNL1       -0.0201
     21 C         139.1346  141.4710  165.9071 C.ar    1  UNL1        0.0104
     22 C         139.4046  140.1665  166.5967 C.ar    1  UNL1        0.0580
     23 N         139.4245  138.8910  165.8076 N.ar    1  UNL1       -0.2515
     24 C         138.6142  142.8044  163.7389 C.3     1  UNL1        0.0224
     25 C         137.7883  143.6292  162.7969 C.3     1  UNL1        0.0047
     26 C         138.9725  144.2390  163.4867 C.3     1  UNL1        0.0047
     27 C         139.6549  140.1376  168.0754 C.3     1  UNL1        0.0403
     28 C         139.1573  140.3047  169.4806 C.3     1  UNL1        0.0063
     29 C         140.5857  139.9204  169.2314 C.3     1  UNL1        0.0063
@<TRIPOS>BOND
     1     2     3    1
     2     3     4    1
     3     4     5    1
     4     5     6    1
     5     6     1    1
     6     1    16    1
     7    16    17    1
     8    17    18    1
     9    18    19   ar
    10    19    20   ar
    11    20    24    1
    12    24    25    1
    13    25    26    1
    14    20    21   ar
    15    21    22   ar
    16    22    27    1
    17    27    28    1
    18    28    29    1
    19    22    23   ar
    20     6     9    1
    21     9    10   ar
    22    10    11   ar
    23    11    12   ar
    24    12    13    1
    25    12    14   ar
    26    14    15   ar
    27     6     7    1
    28     7     8    1
    29     8     3    1
    30    23    18   ar
    31    15     9   ar
    32    26    24    1
    33    29    27    1
@<TRIPOS>MOLECULE
*****
 29 33 0 0 0
SMALL
GASTEIGER

@<TRIPOS>ATOM
      1 C         140.3899  145.0211  162.1235 C.3     1  UNL1        0.1467
      2 C         141.7483  144.7724  156.5615 C.3     1  UNL1        0.0896
      3 N         141.5822  144.6725  158.0490 N.3     1  UNL1       -0.2715
      4 C         142.4870  143.7806  158.8464 C.3     1  UNL1        0.0725
      5 C         142.3210  143.6807  160.3338 C.3     1  UNL1        0.0238
      6 C         141.2502  144.4727  161.0238 C.3     1  UNL1        0.0489
      7 C         140.3455  145.3646  160.2264 C.3     1  UNL1        0.0238
      8 C         140.5115  145.4645  158.7390 C.3     1  UNL1        0.0725
      9 C         141.8562  143.7712  162.2032 C.ar    1  UNL1       -0.0202
     10 C         142.4281  144.5686  163.3376 C.ar    1  UNL1       -0.0019
     11 C         143.0341  143.8672  164.5169 C.ar    1  UNL1        0.0293
     12 C         143.0681  142.3683  164.5617 C.ar    1  UNL1        0.1401
     13 F         143.6741  141.6668  165.7410 F       1  UNL1       -0.2042
     14 C         142.4963  141.5707  163.4273 C.ar    1  UNL1        0.0293
     15 C         141.8903  142.2722  162.2480 C.ar    1  UNL1       -0.0019
     16 O         138.9014  144.8431  162.0708 O.3     1  UNL1       -0.3470
     17 C         138.1584  144.3762  163.2873 C.3     1  UNL1        0.1874
     18 C         138.6884  143.2290  164.0954 C.ar    1  UNL1        0.0881
     19 C         139.3745  143.4871  165.4041 C.ar    1  UNL1        0.0130
     20 C         139.9044  142.3399  166.2122 C.ar    1  UNL1       -0.0201
     21 C         139.7483  140.9345  165.7116 C.ar    1  UNL1        0.0104
     22 C         139.0622  140.6764  164.4029 C.ar    1  UNL1        0.0580
     23 N         138.5322  141.8236  163.5948 N.ar    1  UNL1       -0.2515
     24 C         140.5905  142.5980  167.5209 C.3     1  UNL1        0.0224
     25 C         141.8100  142.5036  168.3891 C.3     1  UNL1        0.0047
     26 C         140.5592  143.1394  168.9194 C.3     1  UNL1        0.0047
     27 C         138.9060  139.2710  163.9024 C.3     1  UNL1        0.0403
     28 C         138.5837  138.3160  162.7914 C.3     1  UNL1        0.0063
     29 C         138.9579  137.7919  164.1461 C.3     1  UNL1        0.0063
@<TRIPOS>BOND
     1     2     3    1
     2     3     4    1
     3     4     5    1
     4     5     6    1
     5     6     1    1
     6     1    16    1
     7    16    17    1
     8    17    18    1
     9    18    19   ar
    10    19    20   ar
    11    20    24    1
    12    24    25    1
    13    25    26    1
    14    20    21   ar
    15    21    22   ar
    16    22    27    1
    17    27    28    1
    18    28    29    1
    19    22    23   ar
    20     6     9    1
    21     9    10   ar
    22    10    11   ar
    23    11    12   ar
    24    12    13    1
    25    12    14   ar
    26    14    15   ar
    27     6     7    1
    28     7     8    1
    29     8     3    1
    30    23    18   ar
    31    15     9   ar
    32    26    24    1
    33    29    27    1
