@<TRIPOS>MOLECULE
*****
 34 38 0 0 0
SMALL
GASTEIGER

@<TRIPOS>ATOM
      1 C         141.3946  142.9165  164.7022 C.ar    1  UNL1        0.0906
      2 C         140.2837  142.9897  165.7075 C.ar    1  UNL1        0.1496
      3 O         139.2492  143.9427  165.1865 O.2     1  UNL1       -0.4534
      4 C         139.7206  144.4584  163.8591 C.ar    1  UNL1        0.1454
      5 C         139.1138  145.4236  162.8844 C.ar    1  UNL1        0.0406
      6 C         139.8329  145.7545  161.6103 C.ar    1  UNL1        0.0395
      7 C         141.1589  145.1202  161.3110 C.ar    1  UNL1        0.1311
      8 O         141.8781  145.4512  160.0369 O.3     1  UNL1       -0.5058
      9 C         141.7657  144.1551  162.2858 C.ar    1  UNL1        0.0308
     10 C         141.0465  143.8242  163.5598 C.ar    1  UNL1        0.0421
     11 H         141.4990  146.0541  159.4280 H       1  UNL1        0.2922
     12 C         140.2189  142.2414  167.0059 C.ar    1  UNL1        0.0347
     13 C         139.7874  140.8050  167.0229 C.ar    1  UNL1        0.0028
     14 C         139.7225  140.0567  168.3213 C.ar    1  UNL1       -0.0018
     15 C         140.0891  140.7448  169.6027 C.ar    1  UNL1        0.0070
     16 C         140.5206  142.1813  169.5857 C.ar    1  UNL1       -0.0018
     17 C         140.5855  142.9296  168.2873 C.ar    1  UNL1        0.0028
     18 C         140.0242  139.9965  170.9011 C.3     1  UNL1        0.1636
     19 O         140.6793  140.5621  172.1263 O.3     1  UNL1       -0.3772
     20 H         141.6406  140.5827  171.9986 H       1  UNL1        0.2109
     21 C         143.8451  139.7985  164.5489 C.3     1  UNL1        0.1109
     22 N         142.6041  140.6329  164.4324 N.am    1  UNL1       -0.2991
     23 C         142.6356  142.0821  164.8188 C.2     1  UNL1        0.2490
     24 O         143.9081  142.6966  165.3217 O.2     1  UNL1       -0.2700
     25 H         141.7689  140.2296  164.1023 H       1  UNL1        0.1498
     26 C         143.0917  143.5208  161.9865 C.3     1  UNL1        0.1023
     27 N         143.1499  142.1184  161.4575 N.3     1  UNL1       -0.2687
     28 C         144.3859  141.2806  161.3147 C.3     1  UNL1        0.0726
     29 C         143.9823  139.9520  160.7473 C.3     1  UNL1        0.0235
     30 C         142.4968  139.9686  160.5395 C.3     1  UNL1        0.0707
     31 C         141.0388  139.7658  160.2515 C.3     1  UNL1        0.1458
     32 O         141.3287  138.3780  159.7615 O.3     1  UNL1       -0.3535
     33 C         142.7867  138.5809  160.0495 C.3     1  UNL1        0.1458
     34 C         141.9824  141.3076  160.9784 C.3     1  UNL1        0.0772
@<TRIPOS>BOND
     1    21    22    1
     2    22    23   am
     3    23    24    2
     4    23     1    1
     5     1     2   ar
     6     2    12    1
     7    12    13   ar
     8    13    14   ar
     9    14    15   ar
    10    15    18    1
    11    18    19    1
    12    15    16   ar
    13    16    17   ar
    14     2     3   ar
    15     3     4   ar
    16     4     5   ar
    17     5     6   ar
    18     6     7   ar
    19     7     8    1
    20     7     9   ar
    21     9    26    1
    22    26    27    1
    23    27    28    1
    24    28    29    1
    25    29    30    1
    26    30    31    1
    27    31    32    1
    28    32    33    1
    29    30    34    1
    30     9    10   ar
    31    10     1   ar
    32    17    12   ar
    33    10     4   ar
    34    34    27    1
    35    33    30    1
    36    22    25    1
    37    19    20    1
    38     8    11    1
@<TRIPOS>MOLECULE
*****
 34 38 0 0 0
SMALL
GASTEIGER

@<TRIPOS>ATOM
      1 C         139.7852  141.4452  164.3296 C.ar    1  UNL1        0.0906
      2 C         140.1884  140.6612  165.5432 C.ar    1  UNL1        0.1496
      3 O         139.8193  139.2259  165.3113 O.2     1  UNL1       -0.4534
      4 C         139.1881  139.1229  163.9544 C.ar    1  UNL1        0.1454
      5 C         138.6298  137.9574  163.1930 C.ar    1  UNL1        0.0406
      6 C         138.0505  138.1635  161.8249 C.ar    1  UNL1        0.0395
      7 C         138.0294  139.5352  161.2182 C.ar    1  UNL1        0.1311
      8 O         137.4500  139.7413  159.8500 O.3     1  UNL1       -0.5058
      9 C         138.5877  140.7007  161.9796 C.ar    1  UNL1        0.0308
     10 C         139.1671  140.4946  163.3477 C.ar    1  UNL1        0.0421
     11 H         137.1013  139.0132  159.3743 H       1  UNL1        0.2922
     12 C         140.8452  141.2151  166.7727 C.ar    1  UNL1        0.0347
     13 C         142.2774  141.6580  166.7230 C.ar    1  UNL1        0.0028
     14 C         142.9342  142.2119  167.9526 C.ar    1  UNL1       -0.0018
     15 C         142.1588  142.3229  169.2317 C.ar    1  UNL1        0.0070
     16 C         140.7266  141.8800  169.2814 C.ar    1  UNL1       -0.0018
     17 C         140.0698  141.3261  168.0519 C.ar    1  UNL1        0.0028
     18 C         142.8157  142.8769  170.4613 C.3     1  UNL1        0.1636
     19 O         142.3063  142.4963  171.8198 O.3     1  UNL1       -0.3772
     20 H         141.4113  142.8504  171.9404 H       1  UNL1        0.2109
     21 C         141.3760  144.9145  163.2414 C.3     1  UNL1        0.1109
     22 N         141.1931  143.4388  163.4385 N.am    1  UNL1       -0.2991
     23 C         139.9682  142.9209  164.1325 C.2     1  UNL1        0.2490
     24 O         138.9264  143.8788  164.6294 O.2     1  UNL1       -0.2700
     25 H         141.8769  142.8101  163.1123 H       1  UNL1        0.1498
     26 C         138.5667  142.0724  161.3729 C.3     1  UNL1        0.1023
     27 N         139.7387  142.5560  160.5715 N.3     1  UNL1       -0.2687
     28 C         140.9184  141.7315  160.1487 C.3     1  UNL1        0.0726
     29 C         141.8457  142.6150  159.3680 C.3     1  UNL1        0.0235
     30 C         141.2392  143.9857  159.3083 C.3     1  UNL1        0.0707
     31 C         140.8235  145.4151  159.1239 C.3     1  UNL1        0.1458
     32 O         142.0761  145.6784  158.3417 O.3     1  UNL1       -0.3535
     33 C         142.4917  144.2490  158.5261 C.3     1  UNL1        0.1458
     34 C         139.9370  143.9492  160.0521 C.3     1  UNL1        0.0772
@<TRIPOS>BOND
     1    21    22    1
     2    22    23   am
     3    23    24    2
     4    23     1    1
     5     1     2   ar
     6     2    12    1
     7    12    13   ar
     8    13    14   ar
     9    14    15   ar
    10    15    18    1
    11    18    19    1
    12    15    16   ar
    13    16    17   ar
    14     2     3   ar
    15     3     4   ar
    16     4     5   ar
    17     5     6   ar
    18     6     7   ar
    19     7     8    1
    20     7     9   ar
    21     9    26    1
    22    26    27    1
    23    27    28    1
    24    28    29    1
    25    29    30    1
    26    30    31    1
    27    31    32    1
    28    32    33    1
    29    30    34    1
    30     9    10   ar
    31    10     1   ar
    32    17    12   ar
    33    10     4   ar
    34    34    27    1
    35    33    30    1
    36    22    25    1
    37    19    20    1
    38     8    11    1
@<TRIPOS>MOLECULE
*****
 34 38 0 0 0
SMALL
GASTEIGER

@<TRIPOS>ATOM
      1 C         142.6495  140.4167  164.1092 C.ar    1  UNL1        0.0906
      2 C         142.0583  139.3776  165.0152 C.ar    1  UNL1        0.1496
      3 O         141.9430  138.0985  164.2402 O.2     1  UNL1       -0.4534
      4 C         142.4629  138.3470  162.8553 C.ar    1  UNL1        0.1454
      5 C         142.5951  137.4538  161.6576 C.ar    1  UNL1        0.0406
      6 C         143.1640  137.9933  160.3788 C.ar    1  UNL1        0.0395
      7 C         143.6007  139.4261  160.2978 C.ar    1  UNL1        0.1311
      8 O         144.1696  139.9656  159.0190 O.3     1  UNL1       -0.5058
      9 C         143.4685  140.3193  161.4956 C.ar    1  UNL1        0.0308
     10 C         142.8996  139.7797  162.7743 C.ar    1  UNL1        0.0421
     11 H         144.2521  139.4076  158.2708 H       1  UNL1        0.2922
     12 C         141.6536  139.5818  166.4450 C.ar    1  UNL1        0.0347
     13 C         142.6633  139.4148  167.5415 C.ar    1  UNL1        0.0028
     14 C         142.2586  139.6190  168.9714 C.ar    1  UNL1       -0.0018
     15 C         140.8440  139.9902  169.3047 C.ar    1  UNL1        0.0070
     16 C         139.8342  140.1572  168.2082 C.ar    1  UNL1       -0.0018
     17 C         140.2390  139.9530  166.7783 C.ar    1  UNL1        0.0028
     18 C         140.4392  140.1944  170.7345 C.3     1  UNL1        0.1636
     19 O         139.5847  139.1733  171.4253 O.3     1  UNL1       -0.3772
     20 H         138.7084  139.1508  171.0101 H       1  UNL1        0.2109
     21 C         144.6134  143.6682  165.2587 C.3     1  UNL1        0.1109
     22 N         144.3232  142.2424  164.8939 N.am    1  UNL1       -0.2991
     23 C         142.9398  141.8424  164.4740 C.2     1  UNL1        0.2490
     24 O         141.8468  142.8681  164.4189 O.2     1  UNL1       -0.2700
     25 H         145.0406  141.5692  164.9301 H       1  UNL1        0.1498
     26 C         143.9051  141.7520  161.4146 C.3     1  UNL1        0.1023
     27 N         143.0852  142.7435  160.6436 N.3     1  UNL1       -0.2687
     28 C         143.2767  143.1157  159.2031 C.3     1  UNL1        0.0726
     29 C         142.2397  144.1392  158.8469 C.3     1  UNL1        0.0235
     30 C         141.4071  144.3997  160.0672 C.3     1  UNL1        0.0707
     31 C         140.4566  144.8120  161.1518 C.3     1  UNL1        0.1458
     32 O         139.7769  145.7506  160.1993 O.3     1  UNL1       -0.3535
     33 C         140.7275  145.3382  159.1147 C.3     1  UNL1        0.1458
     34 C         141.9297  143.5371  161.1776 C.3     1  UNL1        0.0772
@<TRIPOS>BOND
     1    21    22    1
     2    22    23   am
     3    23    24    2
     4    23     1    1
     5     1     2   ar
     6     2    12    1
     7    12    13   ar
     8    13    14   ar
     9    14    15   ar
    10    15    18    1
    11    18    19    1
    12    15    16   ar
    13    16    17   ar
    14     2     3   ar
    15     3     4   ar
    16     4     5   ar
    17     5     6   ar
    18     6     7   ar
    19     7     8    1
    20     7     9   ar
    21     9    26    1
    22    26    27    1
    23    27    28    1
    24    28    29    1
    25    29    30    1
    26    30    31    1
    27    31    32    1
    28    32    33    1
    29    30    34    1
    30     9    10   ar
    31    10     1   ar
    32    17    12   ar
    33    10     4   ar
    34    34    27    1
    35    33    30    1
    36    22    25    1
    37    19    20    1
    38     8    11    1
@<TRIPOS>MOLECULE
*****
 34 38 0 0 0
SMALL
GASTEIGER

@<TRIPOS>ATOM
      1 C         141.1570  140.1284  164.5155 C.ar    1  UNL1        0.0906
      2 C         140.5059  139.5218  165.7230 C.ar    1  UNL1        0.1496
      3 O         139.4812  138.5338  165.2498 O.2     1  UNL1       -0.4534
      4 C         139.4991  138.5298  163.7499 C.ar    1  UNL1        0.1454
      5 C         138.7062  137.7560  162.7388 C.ar    1  UNL1        0.0406
      6 C         138.9489  137.9678  161.2738 C.ar    1  UNL1        0.0395
      7 C         139.9846  138.9534  160.8200 C.ar    1  UNL1        0.1311
      8 O         140.2274  139.1651  159.3549 O.3     1  UNL1       -0.5058
      9 C         140.7776  139.7271  161.8311 C.ar    1  UNL1        0.0308
     10 C         140.5349  139.5153  163.2961 C.ar    1  UNL1        0.0421
     11 H         139.7320  138.6818  158.7233 H       1  UNL1        0.2922
     12 C         140.8236  139.8463  167.1526 C.ar    1  UNL1        0.0347
     13 C         139.7329  140.2926  168.0806 C.ar    1  UNL1        0.0028
     14 C         140.0506  140.6170  169.5102 C.ar    1  UNL1       -0.0018
     15 C         141.4589  140.4952  170.0118 C.ar    1  UNL1        0.0070
     16 C         142.5496  140.0489  169.0838 C.ar    1  UNL1       -0.0018
     17 C         142.2319  139.7244  167.6542 C.ar    1  UNL1        0.0028
     18 C         141.7766  140.8197  171.4414 C.3     1  UNL1        0.1636
     19 O         142.1227  142.2258  171.8323 O.3     1  UNL1       -0.3772
     20 H         142.9623  142.4793  171.4179 H       1  UNL1        0.2109
     21 C         142.9665  143.6602  164.5715 C.3     1  UNL1        0.1109
     22 N         141.8833  142.6226  164.5614 N.am    1  UNL1       -0.2991
     23 C         142.2403  141.1660  164.5256 C.2     1  UNL1        0.2490
     24 O         143.6803  140.7472  164.5000 O.2     1  UNL1       -0.2700
     25 H         140.9382  142.8975  164.5782 H       1  UNL1        0.1498
     26 C         141.8133  140.7127  161.3773 C.3     1  UNL1        0.1023
     27 N         141.4851  142.1754  161.3257 N.3     1  UNL1       -0.2687
     28 C         142.3975  143.2676  160.8516 C.3     1  UNL1        0.0726
     29 C         141.6631  144.5700  160.9719 C.3     1  UNL1        0.0235
     30 C         140.2968  144.2827  161.5205 C.3     1  UNL1        0.0707
     31 C         138.8961  144.2278  162.0541 C.3     1  UNL1        0.1458
     32 O         138.7855  145.7175  161.9173 O.3     1  UNL1       -0.3535
     33 C         140.1863  145.7723  161.3837 C.3     1  UNL1        0.1458
     34 C         140.1868  142.8028  161.7391 C.3     1  UNL1        0.0772
@<TRIPOS>BOND
     1    21    22    1
     2    22    23   am
     3    23    24    2
     4    23     1    1
     5     1     2   ar
     6     2    12    1
     7    12    13   ar
     8    13    14   ar
     9    14    15   ar
    10    15    18    1
    11    18    19    1
    12    15    16   ar
    13    16    17   ar
    14     2     3   ar
    15     3     4   ar
    16     4     5   ar
    17     5     6   ar
    18     6     7   ar
    19     7     8    1
    20     7     9   ar
    21     9    26    1
    22    26    27    1
    23    27    28    1
    24    28    29    1
    25    29    30    1
    26    30    31    1
    27    31    32    1
    28    32    33    1
    29    30    34    1
    30     9    10   ar
    31    10     1   ar
    32    17    12   ar
    33    10     4   ar
    34    34    27    1
    35    33    30    1
    36    22    25    1
    37    19    20    1
    38     8    11    1
@<TRIPOS>MOLECULE
*****
 34 38 0 0 0
SMALL
GASTEIGER

@<TRIPOS>ATOM
      1 C         141.6195  142.4474  164.8373 C.ar    1  UNL1        0.0906
      2 C         141.0475  142.4307  166.2238 C.ar    1  UNL1        0.1496
      3 O         139.7863  143.2426  166.2147 O.2     1  UNL1       -0.4534
      4 C         139.5788  143.7611  164.8226 C.ar    1  UNL1        0.1454
      5 C         138.5046  144.6173  164.2202 C.ar    1  UNL1        0.0406
      6 C         138.5634  144.9820  162.7664 C.ar    1  UNL1        0.0395
      7 C         139.6964  144.4905  161.9150 C.ar    1  UNL1        0.1311
      8 O         139.7551  144.8552  160.4612 O.3     1  UNL1       -0.5058
      9 C         140.7706  143.6343  162.5175 C.ar    1  UNL1        0.0308
     10 C         140.7118  143.2696  163.9713 C.ar    1  UNL1        0.0421
     11 H         139.0840  145.3900  160.0849 H       1  UNL1        0.2922
     12 C         141.6338  141.7258  167.4110 C.ar    1  UNL1        0.0347
     13 C         141.1247  140.3712  167.8058 C.ar    1  UNL1        0.0028
     14 C         141.7110  139.6664  168.9930 C.ar    1  UNL1       -0.0018
     15 C         142.8064  140.3160  169.7854 C.ar    1  UNL1        0.0070
     16 C         143.3155  141.6706  169.3906 C.ar    1  UNL1       -0.0018
     17 C         142.7293  142.3754  168.2034 C.ar    1  UNL1        0.0028
     18 C         143.3927  139.6111  170.9726 C.3     1  UNL1        0.1636
     19 O         143.6521  138.1349  170.9156 O.3     1  UNL1       -0.3772
     20 H         142.8087  137.6609  170.8456 H       1  UNL1        0.2109
     21 C         144.0697  139.7130  163.3306 C.3     1  UNL1        0.1109
     22 N         142.8110  140.3983  163.7734 N.am    1  UNL1       -0.2991
     23 C         142.8782  141.7621  164.3944 C.2     1  UNL1        0.2490
     24 O         144.2040  142.4405  164.5726 O.2     1  UNL1       -0.2700
     25 H         141.9408  139.9530  163.6565 H       1  UNL1        0.1498
     26 C         141.9036  143.1428  161.6661 C.3     1  UNL1        0.1023
     27 N         141.8013  141.8156  160.9748 N.3     1  UNL1       -0.2687
     28 C         140.6228  140.8884  161.0161 C.3     1  UNL1        0.0726
     29 C         140.9526  139.6823  160.1875 C.3     1  UNL1        0.0235
     30 C         142.3349  139.8640  159.6341 C.3     1  UNL1        0.0707
     31 C         143.6842  139.8360  158.9793 C.3     1  UNL1        0.1458
     32 O         143.3669  138.4966  158.3830 O.3     1  UNL1       -0.3535
     33 C         142.0176  138.5248  159.0378 C.3     1  UNL1        0.1458
     34 C         142.8594  141.1825  160.1206 C.3     1  UNL1        0.0772
@<TRIPOS>BOND
     1    21    22    1
     2    22    23   am
     3    23    24    2
     4    23     1    1
     5     1     2   ar
     6     2    12    1
     7    12    13   ar
     8    13    14   ar
     9    14    15   ar
    10    15    18    1
    11    18    19    1
    12    15    16   ar
    13    16    17   ar
    14     2     3   ar
    15     3     4   ar
    16     4     5   ar
    17     5     6   ar
    18     6     7   ar
    19     7     8    1
    20     7     9   ar
    21     9    26    1
    22    26    27    1
    23    27    28    1
    24    28    29    1
    25    29    30    1
    26    30    31    1
    27    31    32    1
    28    32    33    1
    29    30    34    1
    30     9    10   ar
    31    10     1   ar
    32    17    12   ar
    33    10     4   ar
    34    34    27    1
    35    33    30    1
    36    22    25    1
    37    19    20    1
    38     8    11    1
@<TRIPOS>MOLECULE
*****
 34 38 0 0 0
SMALL
GASTEIGER

@<TRIPOS>ATOM
      1 C         139.7875  140.6682  164.8461 C.ar    1  UNL1        0.0906
      2 C         140.2944  141.2920  166.1126 C.ar    1  UNL1        0.1496
      3 O         140.0163  142.7646  166.0474 O.2     1  UNL1       -0.4534
      4 C         139.3375  143.0508  164.7407 C.ar    1  UNL1        0.1454
      5 C         138.8300  144.3238  164.1310 C.ar    1  UNL1        0.0406
      6 C         138.1811  144.3011  162.7788 C.ar    1  UNL1        0.0395
      7 C         138.0397  143.0054  162.0364 C.ar    1  UNL1        0.1311
      8 O         137.3908  142.9828  160.6842 O.3     1  UNL1       -0.5058
      9 C         138.5473  141.7324  162.6461 C.ar    1  UNL1        0.0308
     10 C         139.1962  141.7551  163.9982 C.ar    1  UNL1        0.0421
     11 H         137.0737  143.7780  160.3033 H       1  UNL1        0.2922
     12 C         140.9621  140.5702  167.2453 C.ar    1  UNL1        0.0347
     13 C         140.3206  140.5455  168.6009 C.ar    1  UNL1        0.0028
     14 C         140.9883  139.8236  169.7336 C.ar    1  UNL1       -0.0018
     15 C         142.2975  139.1264  169.5107 C.ar    1  UNL1        0.0070
     16 C         142.9390  139.1510  168.1551 C.ar    1  UNL1       -0.0018
     17 C         142.2713  139.8729  167.0223 C.ar    1  UNL1        0.0028
     18 C         142.9652  138.4045  170.6434 C.3     1  UNL1        0.1636
     19 O         144.0479  139.0818  171.4300 O.3     1  UNL1       -0.3772
     20 H         144.8168  139.2329  170.8582 H       1  UNL1        0.2109
     21 C         141.1582  137.2079  163.4684 C.3     1  UNL1        0.1109
     22 N         141.0863  138.6632  163.8245 N.am    1  UNL1       -0.2991
     23 C         139.8594  139.2128  164.4900 C.2     1  UNL1        0.2490
     24 O         138.7046  138.3070  164.7993 O.2     1  UNL1       -0.2700
     25 H         141.8444  139.2577  163.6215 H       1  UNL1        0.1498
     26 C         138.4059  140.4367  161.9037 C.3     1  UNL1        0.1023
     27 N         139.2141  140.1905  160.6643 N.3     1  UNL1       -0.2687
     28 C         138.6799  140.1093  159.2649 C.3     1  UNL1        0.0726
     29 C         139.8341  139.8508  158.3424 C.3     1  UNL1        0.0235
     30 C         141.0817  139.7722  159.1715 C.3     1  UNL1        0.0707
     31 C         142.4402  139.6560  159.7966 C.3     1  UNL1        0.1458
     32 O         143.0434  139.4251  158.4427 O.3     1  UNL1       -0.3535
     33 C         141.6847  139.5412  157.8177 C.3     1  UNL1        0.1458
     34 C         140.6985  139.9821  160.6066 C.3     1  UNL1        0.0772
@<TRIPOS>BOND
     1    21    22    1
     2    22    23   am
     3    23    24    2
     4    23     1    1
     5     1     2   ar
     6     2    12    1
     7    12    13   ar
     8    13    14   ar
     9    14    15   ar
    10    15    18    1
    11    18    19    1
    12    15    16   ar
    13    16    17   ar
    14     2     3   ar
    15     3     4   ar
    16     4     5   ar
    17     5     6   ar
    18     6     7   ar
    19     7     8    1
    20     7     9   ar
    21     9    26    1
    22    26    27    1
    23    27    28    1
    24    28    29    1
    25    29    30    1
    26    30    31    1
    27    31    32    1
    28    32    33    1
    29    30    34    1
    30     9    10   ar
    31    10     1   ar
    32    17    12   ar
    33    10     4   ar
    34    34    27    1
    35    33    30    1
    36    22    25    1
    37    19    20    1
    38     8    11    1
@<TRIPOS>MOLECULE
*****
 34 38 0 0 0
SMALL
GASTEIGER

@<TRIPOS>ATOM
      1 C         140.3390  140.9950  163.6926 C.ar    1  UNL1        0.0906
      2 C         140.0465  139.9492  164.7273 C.ar    1  UNL1        0.1496
      3 O         138.9921  139.0351  164.1772 O.2     1  UNL1       -0.4534
      4 C         138.6329  139.5159  162.8025 C.ar    1  UNL1        0.1454
      5 C         137.6554  139.0073  161.7848 C.ar    1  UNL1        0.0406
      6 C         137.5104  139.7099  160.4676 C.ar    1  UNL1        0.0395
      7 C         138.3429  140.9213  160.1680 C.ar    1  UNL1        0.1311
      8 O         138.1978  141.6239  158.8507 O.3     1  UNL1       -0.5058
      9 C         139.3204  141.4299  161.1857 C.ar    1  UNL1        0.0308
     10 C         139.4654  140.7272  162.5030 C.ar    1  UNL1        0.0421
     11 H         137.5872  141.3062  158.2150 H       1  UNL1        0.2922
     12 C         140.6946  139.8372  166.0754 C.ar    1  UNL1        0.0347
     13 C         142.1248  139.3987  166.1859 C.ar    1  UNL1        0.0028
     14 C         142.7729  139.2867  167.5341 C.ar    1  UNL1       -0.0018
     15 C         141.9908  139.6131  168.7717 C.ar    1  UNL1        0.0070
     16 C         140.5606  140.0515  168.6612 C.ar    1  UNL1       -0.0018
     17 C         139.9125  140.1636  167.3130 C.ar    1  UNL1        0.0028
     18 C         142.6389  139.5011  170.1198 C.3     1  UNL1        0.1636
     19 O         143.1400  138.1724  170.6030 O.3     1  UNL1       -0.3772
     20 H         142.3896  137.5717  170.7332 H       1  UNL1        0.2109
     21 C         143.6564  143.1331  163.2757 C.3     1  UNL1        0.1109
     22 N         142.6644  142.0156  163.1440 N.am    1  UNL1       -0.2991
     23 C         141.3310  142.1124  163.8243 C.2     1  UNL1        0.2490
     24 O         140.9897  143.3266  164.6361 O.2     1  UNL1       -0.2700
     25 H         142.8885  141.2187  162.6111 H       1  UNL1        0.1498
     26 C         140.1528  142.6412  160.8862 C.3     1  UNL1        0.1023
     27 N         141.4329  142.5001  160.1171 N.3     1  UNL1       -0.2687
     28 C         142.3637  143.6150  159.7422 C.3     1  UNL1        0.0726
     29 C         143.5130  143.0233  158.9813 C.3     1  UNL1        0.0235
     30 C         143.2925  141.5426  158.8859 C.3     1  UNL1        0.0707
     31 C         143.2749  140.0582  158.6714 C.3     1  UNL1        0.1458
     32 O         144.5738  140.1504  157.9267 O.3     1  UNL1       -0.3535
     33 C         144.5913  141.6349  158.1413 C.3     1  UNL1        0.1458
     34 C         142.0069  141.2193  159.5879 C.3     1  UNL1        0.0772
@<TRIPOS>BOND
     1    21    22    1
     2    22    23   am
     3    23    24    2
     4    23     1    1
     5     1     2   ar
     6     2    12    1
     7    12    13   ar
     8    13    14   ar
     9    14    15   ar
    10    15    18    1
    11    18    19    1
    12    15    16   ar
    13    16    17   ar
    14     2     3   ar
    15     3     4   ar
    16     4     5   ar
    17     5     6   ar
    18     6     7   ar
    19     7     8    1
    20     7     9   ar
    21     9    26    1
    22    26    27    1
    23    27    28    1
    24    28    29    1
    25    29    30    1
    26    30    31    1
    27    31    32    1
    28    32    33    1
    29    30    34    1
    30     9    10   ar
    31    10     1   ar
    32    17    12   ar
    33    10     4   ar
    34    34    27    1
    35    33    30    1
    36    22    25    1
    37    19    20    1
    38     8    11    1
@<TRIPOS>MOLECULE
*****
 34 38 0 0 0
SMALL
GASTEIGER

@<TRIPOS>ATOM
      1 C         141.7660  140.7736  164.0962 C.ar    1  UNL1        0.0906
      2 C         142.0025  139.7552  165.1718 C.ar    1  UNL1        0.1496
      3 O         142.8301  138.6486  164.5884 O.2     1  UNL1       -0.4534
      4 C         143.1052  138.9830  163.1523 C.ar    1  UNL1        0.1454
      5 C         143.8695  138.2612  162.0823 C.ar    1  UNL1        0.0406
      6 C         143.9761  138.8529  160.7081 C.ar    1  UNL1        0.0395
      7 C         143.3185  140.1663  160.4038 C.ar    1  UNL1        0.1311
      8 O         143.4252  140.7579  159.0295 O.3     1  UNL1       -0.5058
      9 C         142.5542  140.8880  161.4738 C.ar    1  UNL1        0.0308
     10 C         142.4475  140.2963  162.8480 C.ar    1  UNL1        0.0421
     11 H         143.9026  140.3070  158.3611 H       1  UNL1        0.2922
     12 C         141.4996  139.8303  166.5830 C.ar    1  UNL1        0.0347
     13 C         142.4706  139.8291  167.7263 C.ar    1  UNL1        0.0028
     14 C         141.9677  139.9042  169.1375 C.ar    1  UNL1       -0.0018
     15 C         140.4939  139.9806  169.4054 C.ar    1  UNL1        0.0070
     16 C         139.5229  139.9818  168.2621 C.ar    1  UNL1       -0.0018
     17 C         140.0257  139.9067  166.8509 C.ar    1  UNL1        0.0028
     18 C         139.9910  140.0557  170.8166 C.3     1  UNL1        0.1636
     19 O         140.8568  140.6438  171.8910 O.3     1  UNL1       -0.3772
     20 H         141.6338  140.0790  172.0254 H       1  UNL1        0.2109
     21 C         138.7293  143.3287  164.1164 C.3     1  UNL1        0.1109
     22 N         139.5102  142.0564  163.9697 N.am    1  UNL1       -0.2991
     23 C         140.9852  142.0459  164.2429 C.2     1  UNL1        0.2490
     24 O         141.6791  143.3077  164.6626 O.2     1  UNL1       -0.2700
     25 H         139.0547  141.2283  163.6942 H       1  UNL1        0.1498
     26 C         141.8965  142.2013  161.1696 C.3     1  UNL1        0.1023
     27 N         140.7895  142.2697  160.1598 N.3     1  UNL1       -0.2687
     28 C         140.4389  143.4585  159.3148 C.3     1  UNL1        0.0726
     29 C         139.2714  143.0848  158.4504 C.3     1  UNL1        0.0235
     30 C         138.9003  141.6649  158.7610 C.3     1  UNL1        0.0707
     31 C         138.3608  140.2733  158.9099 C.3     1  UNL1        0.1458
     32 O         137.3253  140.5629  157.8639 O.3     1  UNL1       -0.3535
     33 C         137.8650  141.9545  157.7151 C.3     1  UNL1        0.1458
     34 C         139.8386  141.1612  159.8175 C.3     1  UNL1        0.0772
@<TRIPOS>BOND
     1    21    22    1
     2    22    23   am
     3    23    24    2
     4    23     1    1
     5     1     2   ar
     6     2    12    1
     7    12    13   ar
     8    13    14   ar
     9    14    15   ar
    10    15    18    1
    11    18    19    1
    12    15    16   ar
    13    16    17   ar
    14     2     3   ar
    15     3     4   ar
    16     4     5   ar
    17     5     6   ar
    18     6     7   ar
    19     7     8    1
    20     7     9   ar
    21     9    26    1
    22    26    27    1
    23    27    28    1
    24    28    29    1
    25    29    30    1
    26    30    31    1
    27    31    32    1
    28    32    33    1
    29    30    34    1
    30     9    10   ar
    31    10     1   ar
    32    17    12   ar
    33    10     4   ar
    34    34    27    1
    35    33    30    1
    36    22    25    1
    37    19    20    1
    38     8    11    1
@<TRIPOS>MOLECULE
*****
 34 38 0 0 0
SMALL
GASTEIGER

@<TRIPOS>ATOM
      1 C         140.9183  142.1709  164.3340 C.ar    1  UNL1        0.0906
      2 C         139.8636  141.9367  165.3746 C.ar    1  UNL1        0.1496
      3 O         138.5260  141.9832  164.6974 O.2     1  UNL1       -0.4534
      4 C         138.7540  142.2460  163.2383 C.ar    1  UNL1        0.1454
      5 C         137.8063  142.3947  162.0851 C.ar    1  UNL1        0.0406
      6 C         138.3372  142.6594  160.7075 C.ar    1  UNL1        0.0395
      7 C         139.8158  142.7754  160.4829 C.ar    1  UNL1        0.1311
      8 O         140.3466  143.0402  159.1051 O.3     1  UNL1       -0.5058
      9 C         140.7634  142.6268  161.6360 C.ar    1  UNL1        0.0308
     10 C         140.2326  142.3621  163.0137 C.ar    1  UNL1        0.0421
     11 H         139.7546  143.1330  158.3848 H       1  UNL1        0.2922
     12 C         140.1042  141.6981  166.8358 C.ar    1  UNL1        0.0347
     13 C         140.6551  142.7976  167.6946 C.ar    1  UNL1        0.0028
     14 C         140.8957  142.5589  169.1558 C.ar    1  UNL1       -0.0018
     15 C         140.5855  141.2207  169.7582 C.ar    1  UNL1        0.0070
     16 C         140.0347  140.1212  168.8994 C.ar    1  UNL1       -0.0018
     17 C         139.7941  140.3599  167.4382 C.ar    1  UNL1        0.0028
     18 C         140.8262  140.9820  171.2194 C.3     1  UNL1        0.1636
     19 O         140.5269  142.0631  172.2152 O.3     1  UNL1       -0.3772
     20 H         141.1284  142.8105  172.0716 H       1  UNL1        0.2109
     21 C         144.5516  143.5397  165.1563 C.3     1  UNL1        0.1109
     22 N         143.0711  143.5031  164.9184 N.am    1  UNL1       -0.2991
     23 C         142.3989  142.2075  164.5720 C.2     1  UNL1        0.2490
     24 O         143.2073  140.9487  164.4636 O.2     1  UNL1       -0.2700
     25 H         142.5405  144.3293  164.9895 H       1  UNL1        0.1498
     26 C         142.2420  142.7428  161.4115 C.3     1  UNL1        0.1023
     27 N         142.8622  142.1521  160.1801 N.3     1  UNL1       -0.2687
     28 C         143.7186  142.8813  159.1876 C.3     1  UNL1        0.0726
     29 C         144.1207  141.9084  158.1191 C.3     1  UNL1        0.0235
     30 C         143.5128  140.5778  158.4511 C.3     1  UNL1        0.0707
     31 C         143.0095  139.1714  158.5865 C.3     1  UNL1        0.1458
     32 O         143.7172  138.7960  157.3183 O.3     1  UNL1       -0.3535
     33 C         144.2205  140.2026  157.1830 C.3     1  UNL1        0.1458
     34 C         142.7350  140.7285  159.7249 C.3     1  UNL1        0.0772
@<TRIPOS>BOND
     1    21    22    1
     2    22    23   am
     3    23    24    2
     4    23     1    1
     5     1     2   ar
     6     2    12    1
     7    12    13   ar
     8    13    14   ar
     9    14    15   ar
    10    15    18    1
    11    18    19    1
    12    15    16   ar
    13    16    17   ar
    14     2     3   ar
    15     3     4   ar
    16     4     5   ar
    17     5     6   ar
    18     6     7   ar
    19     7     8    1
    20     7     9   ar
    21     9    26    1
    22    26    27    1
    23    27    28    1
    24    28    29    1
    25    29    30    1
    26    30    31    1
    27    31    32    1
    28    32    33    1
    29    30    34    1
    30     9    10   ar
    31    10     1   ar
    32    17    12   ar
    33    10     4   ar
    34    34    27    1
    35    33    30    1
    36    22    25    1
    37    19    20    1
    38     8    11    1
