@<TRIPOS>MOLECULE
*****
 38 41 0 0 0
SMALL
GASTEIGER

@<TRIPOS>ATOM
      1 N         142.8024  140.6488  159.7650 N.am    1  UNL1       -0.2668
      2 C         143.1264  139.8721  158.5233 C.2     1  UNL1        0.3080
      3 O         143.0314  138.3751  158.5289 O.2     1  UNL1       -0.2522
      4 N         143.5454  140.5923  157.2760 N.am    1  UNL1       -0.2572
      5 C         143.6847  142.0777  157.1202 C.3     1  UNL1        0.0955
      6 C         144.1240  142.3569  155.7134 C.3     1  UNL1        0.0238
      7 C         144.2562  141.0442  154.9998 C.3     1  UNL1        0.0310
      8 C         143.8986  139.9536  155.9655 C.3     1  UNL1        0.1534
      9 H         142.8647  141.6314  159.7613 H       1  UNL1        0.1565
     10 N         138.7369  137.5413  162.4556 N.am    1  UNL1       -0.3108
     11 C         139.9858  137.8345  163.2330 C.2     1  UNL1        0.3169
     12 O         140.1317  137.3273  164.6370 O.2     1  UNL1       -0.2494
     13 N         141.0888  138.6350  162.6063 N.ar    1  UNL1       -0.2601
     14 C         141.0856  139.2055  161.2190 C.ar    1  UNL1        0.0988
     15 C         142.3834  139.9286  161.0123 C.ar    1  UNL1        0.0708
     16 C         143.1887  139.8050  162.2717 C.ar    1  UNL1        0.0312
     17 C         144.5472  140.3172  162.6487 C.ar    1  UNL1        0.0027
     18 C         145.1055  140.0299  164.0109 C.ar    1  UNL1        0.0001
     19 C         144.3054  139.2304  164.9961 C.ar    1  UNL1        0.0015
     20 C         142.9469  138.7182  164.6191 C.ar    1  UNL1        0.0177
     21 C         142.3886  139.0055  163.2569 C.ar    1  UNL1        0.0693
     22 H         138.0130  137.0159  162.8669 H       1  UNL1        0.1467
     23 H         138.6411  137.8743  161.5341 H       1  UNL1        0.1467
     24 C         143.8949  138.4825  155.6723 C.2     1  UNL1        0.2442
     25 O         145.1882  137.7631  155.4280 O.2     1  UNL1       -0.2730
     26 N         142.5977  137.7309  155.6234 N.am    1  UNL1       -0.2825
     27 H         141.7488  138.2030  155.7838 H       1  UNL1        0.1549
     28 C         142.5940  136.2598  155.3302 C.ar    1  UNL1        0.0534
     29 C         142.2667  135.7708  153.9505 C.ar    1  UNL1        0.0149
     30 C         142.2630  134.2998  153.6573 C.ar    1  UNL1        0.0044
     31 C         142.5865  133.3177  154.7439 C.ar    1  UNL1        0.0373
     32 C         142.9138  133.8066  156.1237 C.ar    1  UNL1        0.1480
     33 C         142.9175  135.2776  156.4169 C.ar    1  UNL1        0.0518
     34 O         143.2373  132.8245  157.2103 O.3     1  UNL1       -0.4044
     35 C         144.6511  132.6737  157.6884 C.3     1  UNL1        0.5753
     36 F         146.0649  132.5228  158.1664 F       1  UNL1       -0.1328
     37 F         144.9087  131.6651  156.6084 F       1  UNL1       -0.1328
     38 F         144.3936  133.6822  158.7683 F       1  UNL1       -0.1328
@<TRIPOS>BOND
     1    10    11   am
     2    11    12    2
     3    11    13   am
     4    13    14   ar
     5    14    15   ar
     6    15     1    1
     7     1     2   am
     8     2     3    2
     9     2     4   am
    10     4     5    1
    11     5     6    1
    12     6     7    1
    13     7     8    1
    14     8    24    1
    15    24    25    2
    16    24    26   am
    17    26    28    1
    18    28    29   ar
    19    29    30   ar
    20    30    31   ar
    21    31    32   ar
    22    32    34    1
    23    34    35    1
    24    35    36    1
    25    35    37    1
    26    35    38    1
    27    32    33   ar
    28    15    16   ar
    29    16    17   ar
    30    17    18   ar
    31    18    19   ar
    32    19    20   ar
    33    20    21   ar
    34    21    13   ar
    35     8     4    1
    36    33    28   ar
    37    21    16   ar
    38    10    22    1
    39    10    23    1
    40     1     9    1
    41    26    27    1
@<TRIPOS>MOLECULE
*****
 38 41 0 0 0
SMALL
GASTEIGER

@<TRIPOS>ATOM
      1 N         142.6941  140.6693  159.8991 N.am    1  UNL1       -0.2668
      2 C         142.5378  140.4098  161.3683 C.2     1  UNL1        0.3080
      3 O         141.3167  139.7044  161.8795 O.2     1  UNL1       -0.2522
      4 N         143.6025  140.8557  162.3262 N.am    1  UNL1       -0.2572
      5 C         144.8717  141.5685  161.9642 C.3     1  UNL1        0.0955
      6 C         145.6386  141.8203  163.2285 C.3     1  UNL1        0.0238
      7 C         144.8433  141.2632  164.3718 C.3     1  UNL1        0.0310
      8 C         143.5850  140.6670  163.8141 C.3     1  UNL1        0.1534
      9 H         143.4956  141.1323  159.5636 H       1  UNL1        0.1565
     10 N         137.5822  141.7891  157.4417 N.am    1  UNL1       -0.3108
     11 C         138.2631  140.5169  157.0315 C.2     1  UNL1        0.3169
     12 O         137.6144  139.6085  156.0297 O.2     1  UNL1       -0.2494
     13 N         139.5927  140.1534  157.6232 N.ar    1  UNL1       -0.2601
     14 C         140.3592  140.9583  158.6305 C.ar    1  UNL1        0.0988
     15 C         141.6294  140.2235  158.9413 C.ar    1  UNL1        0.0708
     16 C         141.6479  138.9645  158.1260 C.ar    1  UNL1        0.0312
     17 C         142.6484  137.8519  158.0203 C.ar    1  UNL1        0.0027
     18 C         142.3901  136.6961  157.0998 C.ar    1  UNL1        0.0001
     19 C         141.1314  136.6528  156.2852 C.ar    1  UNL1        0.0015
     20 C         140.1309  137.7653  156.3910 C.ar    1  UNL1        0.0177
     21 C         140.3892  138.9212  157.3114 C.ar    1  UNL1        0.0693
     22 H         136.7096  142.0277  157.0533 H       1  UNL1        0.1467
     23 H         138.0080  142.3854  158.0992 H       1  UNL1        0.1467
     24 C         142.4996  139.9994  164.6055 C.2     1  UNL1        0.2442
     25 O         142.6712  138.5825  165.0672 O.2     1  UNL1       -0.2730
     26 N         141.2426  140.7486  164.9351 N.am    1  UNL1       -0.2825
     27 H         141.1300  141.6785  164.6321 H       1  UNL1        0.1549
     28 C         140.1572  140.0809  165.7264 C.ar    1  UNL1        0.0534
     29 C         139.1924  139.1565  165.0449 C.ar    1  UNL1        0.0149
     30 C         138.1071  138.4889  165.8363 C.ar    1  UNL1        0.0044
     31 C         137.9865  138.7457  167.3092 C.ar    1  UNL1        0.0373
     32 C         138.9513  139.6702  167.9908 C.ar    1  UNL1        0.1480
     33 C         140.0366  140.3377  167.1994 C.ar    1  UNL1        0.0518
     34 O         138.8307  139.9270  169.4637 O.3     1  UNL1       -0.4044
     35 C         139.9385  140.6239  170.1966 C.3     1  UNL1        0.5753
     36 F         141.0463  141.3208  170.9295 F       1  UNL1       -0.1328
     37 F         140.7248  139.3468  170.2224 F       1  UNL1       -0.1328
     38 F         139.1522  141.9010  170.1708 F       1  UNL1       -0.1328
@<TRIPOS>BOND
     1    10    11   am
     2    11    12    2
     3    11    13   am
     4    13    14   ar
     5    14    15   ar
     6    15     1    1
     7     1     2   am
     8     2     3    2
     9     2     4   am
    10     4     5    1
    11     5     6    1
    12     6     7    1
    13     7     8    1
    14     8    24    1
    15    24    25    2
    16    24    26   am
    17    26    28    1
    18    28    29   ar
    19    29    30   ar
    20    30    31   ar
    21    31    32   ar
    22    32    34    1
    23    34    35    1
    24    35    36    1
    25    35    37    1
    26    35    38    1
    27    32    33   ar
    28    15    16   ar
    29    16    17   ar
    30    17    18   ar
    31    18    19   ar
    32    19    20   ar
    33    20    21   ar
    34    21    13   ar
    35     8     4    1
    36    33    28   ar
    37    21    16   ar
    38    10    22    1
    39    10    23    1
    40     1     9    1
    41    26    27    1
@<TRIPOS>MOLECULE
*****
 38 41 0 0 0
SMALL
GASTEIGER

@<TRIPOS>ATOM
      1 N         139.1071  140.9846  158.4530 N.am    1  UNL1       -0.2668
      2 C         137.9989  140.6593  157.4957 C.2     1  UNL1        0.3080
      3 O         136.5941  140.5064  157.9987 O.2     1  UNL1       -0.2522
      4 N         138.2957  140.4871  156.0355 N.am    1  UNL1       -0.2572
      5 C         139.6439  140.6091  155.3894 C.3     1  UNL1        0.0955
      6 C         139.4777  140.3600  153.9196 C.3     1  UNL1        0.0238
      7 C         138.0268  140.0839  153.6573 C.3     1  UNL1        0.0310
      8 C         137.2963  140.1624  154.9650 C.3     1  UNL1        0.1534
      9 H         140.0292  141.0850  158.1229 H       1  UNL1        0.1565
     10 N         137.4980  144.5601  162.7017 N.am    1  UNL1       -0.3108
     11 C         137.7759  143.1372  163.0871 C.2     1  UNL1        0.3169
     12 O         137.6311  142.7054  164.5162 O.2     1  UNL1       -0.2494
     13 N         138.1985  142.1463  162.0432 N.ar    1  UNL1       -0.2601
     14 C         138.3847  142.4302  160.5822 C.ar    1  UNL1        0.0988
     15 C         138.8104  141.1569  159.9132 C.ar    1  UNL1        0.0708
     16 C         138.8872  140.0861  160.9608 C.ar    1  UNL1        0.0312
     17 C         139.2527  138.6333  160.8861 C.ar    1  UNL1        0.0027
     18 C         139.2400  137.7919  162.1279 C.ar    1  UNL1        0.0001
     19 C         138.8618  138.4034  163.4443 C.ar    1  UNL1        0.0015
     20 C         138.4964  139.8563  163.5190 C.ar    1  UNL1        0.0177
     21 C         138.5091  140.6976  162.2773 C.ar    1  UNL1        0.0693
     22 H         137.2206  145.2104  163.3868 H       1  UNL1        0.1467
     23 H         137.5930  144.8435  161.7637 H       1  UNL1        0.1467
     24 C         135.8247  139.9531  155.1669 C.2     1  UNL1        0.2442
     25 O         135.2252  138.5938  154.9601 O.2     1  UNL1       -0.2730
     26 N         134.9527  141.1031  155.5756 N.am    1  UNL1       -0.2825
     27 H         135.3462  141.9953  155.7113 H       1  UNL1        0.1549
     28 C         133.4812  140.8938  155.7775 C.ar    1  UNL1        0.0534
     29 C         132.4941  141.6434  154.9328 C.ar    1  UNL1        0.0149
     30 C         131.0226  141.4341  155.1346 C.ar    1  UNL1        0.0044
     31 C         130.5382  140.4751  156.1813 C.ar    1  UNL1        0.0373
     32 C         131.5252  139.7254  157.0261 C.ar    1  UNL1        0.1480
     33 C         132.9967  139.9347  156.8242 C.ar    1  UNL1        0.0518
     34 O         131.0408  138.7663  158.0728 O.3     1  UNL1       -0.4044
     35 C         129.8868  137.8545  157.7779 C.3     1  UNL1        0.5753
     36 F         128.7328  136.9427  157.4831 F       1  UNL1       -0.1328
     37 F         130.5494  137.4286  156.5014 F       1  UNL1       -0.1328
     38 F         129.2241  138.2804  159.0544 F       1  UNL1       -0.1328
@<TRIPOS>BOND
     1    10    11   am
     2    11    12    2
     3    11    13   am
     4    13    14   ar
     5    14    15   ar
     6    15     1    1
     7     1     2   am
     8     2     3    2
     9     2     4   am
    10     4     5    1
    11     5     6    1
    12     6     7    1
    13     7     8    1
    14     8    24    1
    15    24    25    2
    16    24    26   am
    17    26    28    1
    18    28    29   ar
    19    29    30   ar
    20    30    31   ar
    21    31    32   ar
    22    32    34    1
    23    34    35    1
    24    35    36    1
    25    35    37    1
    26    35    38    1
    27    32    33   ar
    28    15    16   ar
    29    16    17   ar
    30    17    18   ar
    31    18    19   ar
    32    19    20   ar
    33    20    21   ar
    34    21    13   ar
    35     8     4    1
    36    33    28   ar
    37    21    16   ar
    38    10    22    1
    39    10    23    1
    40     1     9    1
    41    26    27    1
@<TRIPOS>MOLECULE
*****
 38 41 0 0 0
SMALL
GASTEIGER

@<TRIPOS>ATOM
      1 N         140.2954  139.7194  159.4839 N.am    1  UNL1       -0.2668
      2 C         139.4842  139.5648  158.2316 C.2     1  UNL1        0.3080
      3 O         138.0204  139.8921  158.2410 O.2     1  UNL1       -0.2522
      4 N         140.1369  139.0829  156.9699 N.am    1  UNL1       -0.2572
      5 C         141.5832  138.7189  156.8089 C.3     1  UNL1        0.0955
      6 C         141.7980  138.2914  155.3872 C.3     1  UNL1        0.0238
      7 C         140.4845  138.3911  154.6697 C.3     1  UNL1        0.0310
      8 C         139.4579  138.8803  155.6478 C.3     1  UNL1        0.1534
      9 H         141.2562  139.5045  159.4777 H       1  UNL1        0.1565
     10 N         137.7107  144.0789  162.2657 N.am    1  UNL1       -0.3108
     11 C         137.8659  142.7935  163.0233 C.2     1  UNL1        0.3169
     12 O         137.3611  142.6876  164.4318 O.2     1  UNL1       -0.2494
     13 N         138.5261  141.6143  162.3724 N.ar    1  UNL1       -0.2601
     14 C         139.0773  141.5710  160.9781 C.ar    1  UNL1        0.0988
     15 C         139.6428  140.2013  160.7456 C.ar    1  UNL1        0.0708
     16 C         139.4409  139.3980  161.9962 C.ar    1  UNL1        0.0312
     17 C         139.7964  137.9842  162.3493 C.ar    1  UNL1        0.0027
     18 C         139.4618  137.4437  163.7079 C.ar    1  UNL1        0.0001
     19 C         138.7716  138.3170  164.7134 C.ar    1  UNL1        0.0015
     20 C         138.4161  139.7308  164.3602 C.ar    1  UNL1        0.0177
     21 C         138.7508  140.2713  163.0017 C.ar    1  UNL1        0.0693
     22 H         137.2774  144.8528  162.6929 H       1  UNL1        0.1467
     23 H         138.0420  144.1485  161.3412 H       1  UNL1        0.1467
     24 C         138.0071  139.1240  155.3553 C.2     1  UNL1        0.2442
     25 O         137.1258  137.9864  154.9321 O.2     1  UNL1       -0.2730
     26 N         137.4375  140.5055  155.4860 N.am    1  UNL1       -0.2825
     27 H         138.0158  141.2522  155.7638 H       1  UNL1        0.1549
     28 C         135.9866  140.7493  155.1935 C.ar    1  UNL1        0.0534
     29 C         135.5709  141.2855  153.8558 C.ar    1  UNL1        0.0149
     30 C         134.1201  141.5293  153.5633 C.ar    1  UNL1        0.0044
     31 C         133.0848  141.2368  154.6086 C.ar    1  UNL1        0.0373
     32 C         133.5004  140.7005  155.9464 C.ar    1  UNL1        0.1480
     33 C         134.9513  140.4567  156.2388 C.ar    1  UNL1        0.0518
     34 O         132.4652  140.4080  156.9917 O.3     1  UNL1       -0.4044
     35 C         131.4559  139.3219  156.7643 C.3     1  UNL1        0.5753
     36 F         130.4465  138.2357  156.5369 F       1  UNL1       -0.1328
     37 F         132.5537  138.2998  156.7728 F       1  UNL1       -0.1328
     38 F         130.3580  140.3438  156.7559 F       1  UNL1       -0.1328
@<TRIPOS>BOND
     1    10    11   am
     2    11    12    2
     3    11    13   am
     4    13    14   ar
     5    14    15   ar
     6    15     1    1
     7     1     2   am
     8     2     3    2
     9     2     4   am
    10     4     5    1
    11     5     6    1
    12     6     7    1
    13     7     8    1
    14     8    24    1
    15    24    25    2
    16    24    26   am
    17    26    28    1
    18    28    29   ar
    19    29    30   ar
    20    30    31   ar
    21    31    32   ar
    22    32    34    1
    23    34    35    1
    24    35    36    1
    25    35    37    1
    26    35    38    1
    27    32    33   ar
    28    15    16   ar
    29    16    17   ar
    30    17    18   ar
    31    18    19   ar
    32    19    20   ar
    33    20    21   ar
    34    21    13   ar
    35     8     4    1
    36    33    28   ar
    37    21    16   ar
    38    10    22    1
    39    10    23    1
    40     1     9    1
    41    26    27    1
@<TRIPOS>MOLECULE
*****
 38 41 0 0 0
SMALL
GASTEIGER

@<TRIPOS>ATOM
      1 N         143.8542  137.4768  155.0343 N.am    1  UNL1       -0.2668
      2 C         143.7281  138.3442  156.2516 C.2     1  UNL1        0.3080
      3 O         143.1705  137.7760  157.5229 O.2     1  UNL1       -0.2522
      4 N         144.1597  139.7798  156.1976 N.am    1  UNL1       -0.2572
      5 C         144.7327  140.4838  155.0035 C.3     1  UNL1        0.0955
      6 C         145.0211  141.9025  155.3962 C.3     1  UNL1        0.0238
      7 C         144.6264  142.0752  156.8329 C.3     1  UNL1        0.0310
      8 C         144.0940  140.7633  157.3283 C.3     1  UNL1        0.1534
      9 H         144.2202  137.8497  154.1999 H       1  UNL1        0.1565
     10 N         144.0718  132.4340  157.8534 N.am    1  UNL1       -0.3108
     11 C         143.2542  132.4687  156.5962 C.2     1  UNL1        0.3169
     12 O         142.5441  131.2329  156.1292 O.2     1  UNL1       -0.2494
     13 N         143.1468  133.7393  155.8062 N.ar    1  UNL1       -0.2601
     14 C         143.7973  135.0472  156.1473 C.ar    1  UNL1        0.0988
     15 C         143.4226  136.0412  155.0883 C.ar    1  UNL1        0.0708
     16 C         142.5405  135.3477  154.0928 C.ar    1  UNL1        0.0312
     17 C         141.8705  135.8279  152.8396 C.ar    1  UNL1        0.0027
     18 C         141.0301  134.8854  152.0302 C.ar    1  UNL1        0.0001
     19 C         140.8596  133.4627  152.4739 C.ar    1  UNL1        0.0015
     20 C         141.5296  132.9825  153.7271 C.ar    1  UNL1        0.0177
     21 C         142.3701  133.9251  154.5365 C.ar    1  UNL1        0.0693
     22 H         144.1423  131.6001  158.3719 H       1  UNL1        0.1467
     23 H         144.5379  133.2452  158.1600 H       1  UNL1        0.1467
     24 C         143.5852  140.4839  158.7114 C.2     1  UNL1        0.2442
     25 O         142.3784  141.2100  159.2276 O.2     1  UNL1       -0.2730
     26 N         144.2832  139.4784  159.5784 N.am    1  UNL1       -0.2825
     27 H         145.0753  139.0018  159.2396 H       1  UNL1        0.1549
     28 C         143.7745  139.1990  160.9615 C.ar    1  UNL1        0.0534
     29 C         144.4132  139.8644  162.1443 C.ar    1  UNL1        0.0149
     30 C         143.9044  139.5850  163.5275 C.ar    1  UNL1        0.0044
     31 C         142.7568  138.6401  163.7278 C.ar    1  UNL1        0.0373
     32 C         142.1180  137.9746  162.5450 C.ar    1  UNL1        0.1480
     33 C         142.6268  138.2540  161.1619 C.ar    1  UNL1        0.0518
     34 O         140.9704  137.0297  162.7453 O.3     1  UNL1       -0.4044
     35 C         139.6625  137.5396  163.2738 C.3     1  UNL1        0.5753
     36 F         138.3546  138.0496  163.8024 F       1  UNL1       -0.1328
     37 F         140.0902  137.1908  164.6686 F       1  UNL1       -0.1328
     38 F         139.2348  137.8884  161.8791 F       1  UNL1       -0.1328
@<TRIPOS>BOND
     1    10    11   am
     2    11    12    2
     3    11    13   am
     4    13    14   ar
     5    14    15   ar
     6    15     1    1
     7     1     2   am
     8     2     3    2
     9     2     4   am
    10     4     5    1
    11     5     6    1
    12     6     7    1
    13     7     8    1
    14     8    24    1
    15    24    25    2
    16    24    26   am
    17    26    28    1
    18    28    29   ar
    19    29    30   ar
    20    30    31   ar
    21    31    32   ar
    22    32    34    1
    23    34    35    1
    24    35    36    1
    25    35    37    1
    26    35    38    1
    27    32    33   ar
    28    15    16   ar
    29    16    17   ar
    30    17    18   ar
    31    18    19   ar
    32    19    20   ar
    33    20    21   ar
    34    21    13   ar
    35     8     4    1
    36    33    28   ar
    37    21    16   ar
    38    10    22    1
    39    10    23    1
    40     1     9    1
    41    26    27    1
@<TRIPOS>MOLECULE
*****
 38 41 0 0 0
SMALL
GASTEIGER

@<TRIPOS>ATOM
      1 N         141.7384  139.5791  159.5190 N.am    1  UNL1       -0.2668
      2 C         142.2578  138.6333  158.4770 C.2     1  UNL1        0.3080
      3 O         142.9833  137.3871  158.8902 O.2     1  UNL1       -0.2522
      4 N         142.0518  138.9337  157.0219 N.am    1  UNL1       -0.2572
      5 C         141.3492  140.1341  156.4603 C.3     1  UNL1        0.0955
      6 C         141.3754  140.0286  154.9643 C.3     1  UNL1        0.0238
      7 C         142.0941  138.7631  154.6013 C.3     1  UNL1        0.0310
      8 C         142.5122  138.0863  155.8730 C.3     1  UNL1        0.1534
      9 H         141.2622  140.3971  159.2478 H       1  UNL1        0.1565
     10 N         145.3460  139.6419  164.0363 N.am    1  UNL1       -0.3108
     11 C         143.9636  139.1152  164.2849 C.2     1  UNL1        0.3169
     12 O         143.5777  138.6383  165.6536 O.2     1  UNL1       -0.2494
     13 N         142.9672  139.0655  163.1647 N.ar    1  UNL1       -0.2601
     14 C         143.2075  139.5051  161.7509 C.ar    1  UNL1        0.0988
     15 C         141.9444  139.2788  160.9741 C.ar    1  UNL1        0.0708
     16 C         140.9235  138.6993  161.9079 C.ar    1  UNL1        0.0312
     17 C         139.5000  138.2746  161.7003 C.ar    1  UNL1        0.0027
     18 C         138.7086  137.7182  162.8466 C.ar    1  UNL1        0.0001
     19 C         139.3407  137.5864  164.2005 C.ar    1  UNL1        0.0015
     20 C         140.7642  138.0110  164.4081 C.ar    1  UNL1        0.0177
     21 C         141.5556  138.5675  163.2618 C.ar    1  UNL1        0.0693
     22 H         145.9999  139.6746  164.7715 H       1  UNL1        0.1467
     23 H         145.5993  139.9550  163.1379 H       1  UNL1        0.1467
     24 C         143.2594  136.7899  155.9774 C.2     1  UNL1        0.2442
     25 O         144.7253  136.7416  155.6628 O.2     1  UNL1       -0.2730
     26 N         142.5408  135.5417  156.3965 N.am    1  UNL1       -0.2825
     27 H         141.5787  135.5734  156.6030 H       1  UNL1        0.1549
     28 C         143.2881  134.2453  156.5010 C.ar    1  UNL1        0.0534
     29 C         144.0862  133.9368  157.7328 C.ar    1  UNL1        0.0149
     30 C         144.8334  132.6404  157.8373 C.ar    1  UNL1        0.0044
     31 C         144.7825  131.6524  156.7098 C.ar    1  UNL1        0.0373
     32 C         143.9843  131.9609  155.4778 C.ar    1  UNL1        0.1480
     33 C         143.2371  133.2573  155.3734 C.ar    1  UNL1        0.0518
     34 O         143.9334  130.9730  154.3502 O.3     1  UNL1       -0.4044
     35 C         143.7683  129.5108  154.6411 C.3     1  UNL1        0.5753
     36 F         143.6032  128.0485  154.9321 F       1  UNL1       -0.1328
     37 F         142.3448  129.7524  155.0475 F       1  UNL1       -0.1328
     38 F         145.1918  129.2691  154.2348 F       1  UNL1       -0.1328
@<TRIPOS>BOND
     1    10    11   am
     2    11    12    2
     3    11    13   am
     4    13    14   ar
     5    14    15   ar
     6    15     1    1
     7     1     2   am
     8     2     3    2
     9     2     4   am
    10     4     5    1
    11     5     6    1
    12     6     7    1
    13     7     8    1
    14     8    24    1
    15    24    25    2
    16    24    26   am
    17    26    28    1
    18    28    29   ar
    19    29    30   ar
    20    30    31   ar
    21    31    32   ar
    22    32    34    1
    23    34    35    1
    24    35    36    1
    25    35    37    1
    26    35    38    1
    27    32    33   ar
    28    15    16   ar
    29    16    17   ar
    30    17    18   ar
    31    18    19   ar
    32    19    20   ar
    33    20    21   ar
    34    21    13   ar
    35     8     4    1
    36    33    28   ar
    37    21    16   ar
    38    10    22    1
    39    10    23    1
    40     1     9    1
    41    26    27    1
@<TRIPOS>MOLECULE
*****
 38 41 0 0 0
SMALL
GASTEIGER

@<TRIPOS>ATOM
      1 N         140.7962  139.0970  160.2937 N.am    1  UNL1       -0.2668
      2 C         140.1909  138.8663  158.9406 C.2     1  UNL1        0.3080
      3 O         138.7831  139.3040  158.6642 O.2     1  UNL1       -0.2522
      4 N         140.9936  138.1979  157.8640 N.am    1  UNL1       -0.2572
      5 C         142.4056  137.7083  157.9923 C.3     1  UNL1        0.0955
      6 C         142.8098  137.1096  156.6777 C.3     1  UNL1        0.0238
      7 C         141.6476  137.2292  155.7370 C.3     1  UNL1        0.0310
      8 C         140.5251  137.9018  156.4702 C.3     1  UNL1        0.1534
      9 H         141.7202  138.8097  160.4751 H       1  UNL1        0.1565
     10 N         137.8153  143.7649  161.9517 N.am    1  UNL1       -0.3108
     11 C         137.9118  142.6406  162.9400 C.2     1  UNL1        0.3169
     12 O         137.2523  142.7628  164.2816 O.2     1  UNL1       -0.2494
     13 N         138.6677  141.3941  162.5866 N.ar    1  UNL1       -0.2601
     14 C         139.3750  141.1296  161.2906 C.ar    1  UNL1        0.0988
     15 C         139.9935  139.7653  161.3702 C.ar    1  UNL1        0.0708
     16 C         139.6685  139.1868  162.7155 C.ar    1  UNL1        0.0312
     17 C         140.0127  137.8734  163.3529 C.ar    1  UNL1        0.0027
     18 C         139.5376  137.5667  164.7422 C.ar    1  UNL1        0.0001
     19 C         138.7182  138.5733  165.4940 C.ar    1  UNL1        0.0015
     20 C         138.3739  139.8867  164.8565 C.ar    1  UNL1        0.0177
     21 C         138.8491  140.1935  163.4672 C.ar    1  UNL1        0.0693
     22 H         137.3191  144.5830  162.1836 H       1  UNL1        0.1467
     23 H         138.2481  143.6847  161.0711 H       1  UNL1        0.1467
     24 C         139.1717  138.2220  155.9082 C.2     1  UNL1        0.2442
     25 O         138.2203  137.1140  155.5661 O.2     1  UNL1       -0.2730
     26 N         138.7697  139.6504  155.6884 N.am    1  UNL1       -0.2825
     27 H         139.3942  140.3776  155.9130 H       1  UNL1        0.1549
     28 C         137.4163  139.9706  155.1265 C.ar    1  UNL1        0.0534
     29 C         137.2285  140.0866  153.6429 C.ar    1  UNL1        0.0149
     30 C         135.8751  140.4068  153.0810 C.ar    1  UNL1        0.0044
     31 C         134.7095  140.6111  154.0027 C.ar    1  UNL1        0.0373
     32 C         134.8973  140.4952  155.4864 C.ar    1  UNL1        0.1480
     33 C         136.2507  140.1749  156.0483 C.ar    1  UNL1        0.0518
     34 O         133.7317  140.6995  156.4082 O.3     1  UNL1       -0.4044
     35 C         133.0757  139.5189  157.0608 C.3     1  UNL1        0.5753
     36 F         132.4197  138.3382  157.7133 F       1  UNL1       -0.1328
     37 F         132.1094  139.4239  155.9174 F       1  UNL1       -0.1328
     38 F         134.0420  139.6138  158.2041 F       1  UNL1       -0.1328
@<TRIPOS>BOND
     1    10    11   am
     2    11    12    2
     3    11    13   am
     4    13    14   ar
     5    14    15   ar
     6    15     1    1
     7     1     2   am
     8     2     3    2
     9     2     4   am
    10     4     5    1
    11     5     6    1
    12     6     7    1
    13     7     8    1
    14     8    24    1
    15    24    25    2
    16    24    26   am
    17    26    28    1
    18    28    29   ar
    19    29    30   ar
    20    30    31   ar
    21    31    32   ar
    22    32    34    1
    23    34    35    1
    24    35    36    1
    25    35    37    1
    26    35    38    1
    27    32    33   ar
    28    15    16   ar
    29    16    17   ar
    30    17    18   ar
    31    18    19   ar
    32    19    20   ar
    33    20    21   ar
    34    21    13   ar
    35     8     4    1
    36    33    28   ar
    37    21    16   ar
    38    10    22    1
    39    10    23    1
    40     1     9    1
    41    26    27    1
@<TRIPOS>MOLECULE
*****
 38 41 0 0 0
SMALL
GASTEIGER

@<TRIPOS>ATOM
      1 N         142.4795  141.8880  160.0685 N.am    1  UNL1       -0.2668
      2 C         141.9507  141.9991  161.4679 C.2     1  UNL1        0.3080
      3 O         140.8396  141.1003  161.9234 O.2     1  UNL1       -0.2522
      4 N         142.5331  143.0091  162.4118 N.am    1  UNL1       -0.2572
      5 C         143.6414  143.9706  162.1002 C.3     1  UNL1        0.0955
      6 C         143.9027  144.7905  163.3288 C.3     1  UNL1        0.0238
      7 C         142.9559  144.3358  164.3996 C.3     1  UNL1        0.0310
      8 C         142.1095  143.2347  163.8329 C.3     1  UNL1        0.1534
      9 H         143.2088  142.4779  159.7696 H       1  UNL1        0.1565
     10 N         143.1201  136.8161  157.3685 N.am    1  UNL1       -0.3108
     11 C         141.8510  137.5686  157.0974 C.2     1  UNL1        0.3169
     12 O         140.8249  136.9968  156.1646 O.2     1  UNL1       -0.2494
     13 N         141.6082  138.8927  157.7590 N.ar    1  UNL1       -0.2601
     14 C         142.5375  139.5866  158.7102 C.ar    1  UNL1        0.0988
     15 C         141.8971  140.8781  159.1247 C.ar    1  UNL1        0.0708
     16 C         140.5719  140.9824  158.4296 C.ar    1  UNL1        0.0312
     17 C         139.5048  142.0362  158.4562 C.ar    1  UNL1        0.0027
     18 C         138.2592  141.8629  157.6388 C.ar    1  UNL1        0.0001
     19 C         138.0806  140.6358  156.7947 C.ar    1  UNL1        0.0015
     20 C         139.1477  139.5821  156.7681 C.ar    1  UNL1        0.0177
     21 C         140.3934  139.7553  157.5856 C.ar    1  UNL1        0.0693
     22 H         143.2795  135.9471  156.9342 H       1  UNL1        0.1467
     23 H         143.7936  137.1914  157.9807 H       1  UNL1        0.1467
     24 C         141.0290  142.4901  164.5596 C.2     1  UNL1        0.2442
     25 O         139.6919  143.1335  164.7790 O.2     1  UNL1       -0.2730
     26 N         141.2858  141.1021  165.0670 N.am    1  UNL1       -0.2825
     27 H         142.1634  140.6798  164.9230 H       1  UNL1        0.1549
     28 C         140.2053  140.3574  165.7938 C.ar    1  UNL1        0.0534
     29 C         139.2416  139.4990  165.0295 C.ar    1  UNL1        0.0149
     30 C         138.1611  138.7544  165.7563 C.ar    1  UNL1        0.0044
     31 C         138.0445  138.8682  167.2474 C.ar    1  UNL1        0.0373
     32 C         139.0083  139.7266  168.0117 C.ar    1  UNL1        0.1480
     33 C         140.0887  140.4712  167.2849 C.ar    1  UNL1        0.0518
     34 O         138.8917  139.8403  169.5028 O.3     1  UNL1       -0.4044
     35 C         139.9357  140.5838  170.2822 C.3     1  UNL1        0.5753
     36 F         140.9798  141.3272  171.0616 F       1  UNL1       -0.1328
     37 F         140.7790  139.3444  170.3347 F       1  UNL1       -0.1328
     38 F         139.0924  141.8231  170.2297 F       1  UNL1       -0.1328
@<TRIPOS>BOND
     1    10    11   am
     2    11    12    2
     3    11    13   am
     4    13    14   ar
     5    14    15   ar
     6    15     1    1
     7     1     2   am
     8     2     3    2
     9     2     4   am
    10     4     5    1
    11     5     6    1
    12     6     7    1
    13     7     8    1
    14     8    24    1
    15    24    25    2
    16    24    26   am
    17    26    28    1
    18    28    29   ar
    19    29    30   ar
    20    30    31   ar
    21    31    32   ar
    22    32    34    1
    23    34    35    1
    24    35    36    1
    25    35    37    1
    26    35    38    1
    27    32    33   ar
    28    15    16   ar
    29    16    17   ar
    30    17    18   ar
    31    18    19   ar
    32    19    20   ar
    33    20    21   ar
    34    21    13   ar
    35     8     4    1
    36    33    28   ar
    37    21    16   ar
    38    10    22    1
    39    10    23    1
    40     1     9    1
    41    26    27    1
@<TRIPOS>MOLECULE
*****
 38 41 0 0 0
SMALL
GASTEIGER

@<TRIPOS>ATOM
      1 N         141.6637  142.9753  159.1674 N.am    1  UNL1       -0.2668
      2 C         141.4164  142.8114  160.6379 C.2     1  UNL1        0.3080
      3 O         141.8051  141.5367  161.3263 O.2     1  UNL1       -0.2522
      4 N         140.7803  143.9223  161.4198 N.am    1  UNL1       -0.2572
      5 C         140.3403  145.2471  160.8711 C.3     1  UNL1        0.0955
      6 C         139.7606  146.0469  161.9999 C.3     1  UNL1        0.0238
      7 C         139.8422  145.2163  163.2463 C.3     1  UNL1        0.0310
      8 C         140.4724  143.9032  162.8878 C.3     1  UNL1        0.1534
      9 H         141.4086  143.8119  158.7156 H       1  UNL1        0.1565
     10 N         146.2811  141.1230  156.2224 N.am    1  UNL1       -0.3108
     11 C         145.1276  140.1708  156.3361 C.2     1  UNL1        0.3169
     12 O         145.2098  138.8141  155.7017 O.2     1  UNL1       -0.2494
     13 N         143.8920  140.5754  157.0841 N.ar    1  UNL1       -0.2601
     14 C         143.6661  141.8916  157.7670 C.ar    1  UNL1        0.0988
     15 C         142.2998  141.8645  158.3855 C.ar    1  UNL1        0.0708
     16 C         141.6813  140.5314  158.0849 C.ar    1  UNL1        0.0312
     17 C         140.3492  139.9401  158.4396 C.ar    1  UNL1        0.0027
     18 C         140.0012  138.5521  157.9900 C.ar    1  UNL1        0.0001
     19 C         140.9852  137.7554  157.1856 C.ar    1  UNL1        0.0015
     20 C         142.3173  138.3467  156.8309 C.ar    1  UNL1        0.0177
     21 C         142.6653  139.7347  157.2805 C.ar    1  UNL1        0.0693
     22 H         147.0921  140.8574  155.7315 H       1  UNL1        0.1467
     23 H         146.2272  142.0135  156.6388 H       1  UNL1        0.1467
     24 C         140.7467  142.7700  163.8315 C.2     1  UNL1        0.2442
     25 O         139.6211  141.8982  164.3038 O.2     1  UNL1       -0.2730
     26 N         142.1465  142.5086  164.3029 N.am    1  UNL1       -0.2825
     27 H         142.8852  143.0808  163.9928 H       1  UNL1        0.1549
     28 C         142.4207  141.3754  165.2466 C.ar    1  UNL1        0.0534
     29 C         142.7165  140.0066  164.7092 C.ar    1  UNL1        0.0149
     30 C         142.9907  138.8734  165.6529 C.ar    1  UNL1        0.0044
     31 C         142.9692  139.1090  167.1341 C.ar    1  UNL1        0.0373
     32 C         142.6735  140.4779  167.6716 C.ar    1  UNL1        0.1480
     33 C         142.3992  141.6110  166.7279 C.ar    1  UNL1        0.0518
     34 O         142.6520  140.7135  169.1528 O.3     1  UNL1       -0.4044
     35 C         142.6457  142.1142  169.6894 C.3     1  UNL1        0.5753
     36 F         142.6393  143.5150  170.2260 F       1  UNL1       -0.1328
     37 F         141.1510  142.0630  169.8055 F       1  UNL1       -0.1328
     38 F         144.1402  142.1655  169.5733 F       1  UNL1       -0.1328
@<TRIPOS>BOND
     1    10    11   am
     2    11    12    2
     3    11    13   am
     4    13    14   ar
     5    14    15   ar
     6    15     1    1
     7     1     2   am
     8     2     3    2
     9     2     4   am
    10     4     5    1
    11     5     6    1
    12     6     7    1
    13     7     8    1
    14     8    24    1
    15    24    25    2
    16    24    26   am
    17    26    28    1
    18    28    29   ar
    19    29    30   ar
    20    30    31   ar
    21    31    32   ar
    22    32    34    1
    23    34    35    1
    24    35    36    1
    25    35    37    1
    26    35    38    1
    27    32    33   ar
    28    15    16   ar
    29    16    17   ar
    30    17    18   ar
    31    18    19   ar
    32    19    20   ar
    33    20    21   ar
    34    21    13   ar
    35     8     4    1
    36    33    28   ar
    37    21    16   ar
    38    10    22    1
    39    10    23    1
    40     1     9    1
    41    26    27    1
