@<TRIPOS>MOLECULE
*****
 33 39 0 0 0
SMALL
GASTEIGER

@<TRIPOS>ATOM
      1 N         138.5049  144.9071  166.1020 N.pl3   1  UNL1       -0.3133
      2 C         138.4140  144.1359  164.8186 C.2     1  UNL1        0.2770
      3 N         138.6812  142.6695  164.6503 N.2     1  UNL1       -0.2202
      4 C         138.4724  142.3230  163.2060 C.3     1  UNL1        0.1580
      5 C         138.0762  143.5753  162.4816 C.3     1  UNL1        0.2351
      6 O         138.0401  144.6958  163.4782 O.2     1  UNL1       -0.4478
      7 C         138.8759  141.1582  164.0606 C.ar    1  UNL1        0.0357
      8 C         139.1201  141.3534  165.5277 C.ar    1  UNL1        0.0007
      9 C         139.5236  140.1886  166.3824 C.ar    1  UNL1        0.0014
     10 C         139.6830  138.8286  165.7699 C.ar    1  UNL1        0.0031
     11 C         139.4389  138.6334  164.3028 C.ar    1  UNL1        0.0366
     12 C         139.0353  139.7983  163.4482 C.ar    1  UNL1        0.1360
     13 O         138.7912  139.6031  161.9811 O.3     1  UNL1       -0.4826
     14 C         138.3876  140.7679  161.1265 C.3     1  UNL1        0.1395
     15 C         138.4448  139.5991  160.1880 C.3     1  UNL1        0.0404
     16 C         138.0424  140.4919  159.0517 C.3     1  UNL1        0.0072
     17 C         137.9852  141.6606  159.9902 C.3     1  UNL1        0.0404
     18 C         138.2283  142.1278  161.7389 C.3     1  UNL1        0.1141
     19 C         138.3408  141.8029  161.9773 C.3     1  UNL1        0.1501
     20 O         138.2225  142.1444  161.7267 O.3     1  UNL1       -0.3532
     21 C         138.3408  141.8029  161.9773 C.3     1  UNL1        0.1501
     22 H         138.7599  144.4484  166.9349 H       1  UNL1        0.1466
     23 H         138.3095  145.8720  166.1113 H       1  UNL1        0.1466
     24 C         139.7677  140.3838  167.8494 C.ar    1  UNL1        0.0192
     25 C         138.7642  139.8901  168.8489 C.ar    1  UNL1        0.0988
     26 N         139.0083  140.0853  170.3160 N.ar    1  UNL1       -0.2423
     27 C         140.2560  140.7742  170.7836 C.ar    1  UNL1        0.0988
     28 C         141.2597  141.2679  169.7840 C.ar    1  UNL1        0.0192
     29 C         142.5073  141.9568  170.2516 C.ar    1  UNL1        0.0015
     30 C         143.5110  142.4506  169.2520 C.ar    1  UNL1        0.0000
     31 C         143.2668  142.2554  167.7850 C.ar    1  UNL1        0.0000
     32 C         142.0191  141.5665  167.3174 C.ar    1  UNL1        0.0001
     33 C         141.0155  141.0728  168.3170 C.ar    1  UNL1        0.0030
@<TRIPOS>BOND
     1     1     2    1
     2     2     3    2
     3     3     4    1
     4     4     5    1
     5     5     6    1
     6     4     7    1
     7     7     8   ar
     8     8     9   ar
     9     9    24    1
    10    24    25   ar
    11    25    26   ar
    12    26    27   ar
    13    27    28   ar
    14    28    29   ar
    15    29    30   ar
    16    30    31   ar
    17    31    32   ar
    18    32    33   ar
    19     9    10   ar
    20    10    11   ar
    21    11    12   ar
    22    12    13    1
    23    13    14    1
    24    14    15    1
    25    15    16    1
    26    16    17    1
    27    14    18    1
    28    18    19    1
    29    19    20    1
    30    20    21    1
    31     6     2    1
    32    12     7   ar
    33    17    14    1
    34    21    18    1
    35    18     4    1
    36    33    24   ar
    37    33    28   ar
    38     1    22    1
    39     1    23    1
@<TRIPOS>MOLECULE
*****
 33 39 0 0 0
SMALL
GASTEIGER

@<TRIPOS>ATOM
      1 N         137.7718  139.7159  165.3768 N.pl3   1  UNL1       -0.3133
      2 C         138.2558  140.6293  164.2900 C.2     1  UNL1        0.2770
      3 N         139.5748  141.3434  164.2605 N.2     1  UNL1       -0.2202
      4 C         139.6400  142.1445  162.9941 C.3     1  UNL1        0.1580
      5 C         138.3614  141.9256  162.2408 C.3     1  UNL1        0.2351
      6 O         137.5060  140.9892  163.0417 O.2     1  UNL1       -0.4478
      7 C         140.8609  142.2666  163.8569 C.ar    1  UNL1        0.0357
      8 C         140.9388  141.5211  165.1562 C.ar    1  UNL1        0.0007
      9 C         142.1597  141.6433  166.0190 C.ar    1  UNL1        0.0014
     10 C         143.3028  142.5109  165.5824 C.ar    1  UNL1        0.0031
     11 C         143.2249  143.2564  164.2831 C.ar    1  UNL1        0.0366
     12 C         142.0039  143.1342  163.4204 C.ar    1  UNL1        0.1360
     13 O         141.9261  143.8797  162.1211 O.3     1  UNL1       -0.4826
     14 C         140.7052  143.7576  161.2583 C.3     1  UNL1        0.1395
     15 C         141.6152  144.6889  160.5135 C.3     1  UNL1        0.0404
     16 C         140.5950  144.8119  159.4207 C.3     1  UNL1        0.0072
     17 C         139.6850  143.8806  160.1655 C.3     1  UNL1        0.0404
     18 C         139.5621  142.8899  161.6948 C.3     1  UNL1        0.1141
     19 C         139.9027  142.9240  161.9355 C.3     1  UNL1        0.1501
     20 O         139.5447  142.8882  161.6825 O.3     1  UNL1       -0.3532
     21 C         139.9027  142.9240  161.9355 C.3     1  UNL1        0.1501
     22 H         138.3397  139.5405  166.1617 H       1  UNL1        0.1466
     23 H         136.8863  139.2917  165.3053 H       1  UNL1        0.1466
     24 C         142.2376  140.8978  167.3183 C.ar    1  UNL1        0.0192
     25 C         142.9466  139.5776  167.3842 C.ar    1  UNL1        0.0988
     26 N         143.0245  138.8321  168.6835 N.ar    1  UNL1       -0.2423
     27 C         142.3933  139.4068  169.9169 C.ar    1  UNL1        0.0988
     28 C         141.6842  140.7270  169.8510 C.ar    1  UNL1        0.0192
     29 C         141.0530  141.3017  171.0844 C.ar    1  UNL1        0.0015
     30 C         140.3439  142.6219  171.0185 C.ar    1  UNL1        0.0000
     31 C         140.2660  143.3674  169.7192 C.ar    1  UNL1        0.0000
     32 C         140.8973  142.7927  168.4858 C.ar    1  UNL1        0.0001
     33 C         141.6063  141.4725  168.5517 C.ar    1  UNL1        0.0030
@<TRIPOS>BOND
     1     1     2    1
     2     2     3    2
     3     3     4    1
     4     4     5    1
     5     5     6    1
     6     4     7    1
     7     7     8   ar
     8     8     9   ar
     9     9    24    1
    10    24    25   ar
    11    25    26   ar
    12    26    27   ar
    13    27    28   ar
    14    28    29   ar
    15    29    30   ar
    16    30    31   ar
    17    31    32   ar
    18    32    33   ar
    19     9    10   ar
    20    10    11   ar
    21    11    12   ar
    22    12    13    1
    23    13    14    1
    24    14    15    1
    25    15    16    1
    26    16    17    1
    27    14    18    1
    28    18    19    1
    29    19    20    1
    30    20    21    1
    31     6     2    1
    32    12     7   ar
    33    17    14    1
    34    21    18    1
    35    18     4    1
    36    33    24   ar
    37    33    28   ar
    38     1    22    1
    39     1    23    1
@<TRIPOS>MOLECULE
*****
 33 39 0 0 0
SMALL
GASTEIGER

@<TRIPOS>ATOM
      1 N         138.1613  139.6879  163.4909 N.pl3   1  UNL1       -0.3133
      2 C         138.6010  139.8029  164.9204 C.2     1  UNL1        0.2770
      3 N         139.8312  140.5077  165.4105 N.2     1  UNL1       -0.2202
      4 C         139.8782  140.3737  166.9037 C.3     1  UNL1        0.1580
      5 C         138.6771  139.5861  167.3365 C.3     1  UNL1        0.2351
      6 O         137.8878  139.2334  166.1107 O.2     1  UNL1       -0.4478
      7 C         141.0266  141.1450  166.3239 C.ar    1  UNL1        0.0357
      8 C         141.1134  141.3602  164.8419 C.ar    1  UNL1        0.0007
      9 C         142.2619  142.1315  164.2621 C.ar    1  UNL1        0.0014
     10 C         143.3236  142.6875  165.1642 C.ar    1  UNL1        0.0031
     11 C         143.2368  142.4722  166.6461 C.ar    1  UNL1        0.0366
     12 C         142.0883  141.7009  167.2260 C.ar    1  UNL1        0.1360
     13 O         142.0015  141.4857  168.7079 O.3     1  UNL1       -0.4826
     14 C         140.8530  140.7144  169.2877 C.3     1  UNL1        0.1395
     15 C         141.6940  141.1041  170.4672 C.3     1  UNL1        0.0404
     16 C         140.7303  140.4100  171.3836 C.3     1  UNL1        0.0072
     17 C         139.8893  140.0204  170.2041 C.3     1  UNL1        0.0404
     18 C         139.7914  140.1585  168.3857 C.3     1  UNL1        0.1141
     19 C         140.1118  140.3736  168.2239 C.3     1  UNL1        0.1501
     20 O         139.7751  140.1475  168.3939 O.3     1  UNL1       -0.3532
     21 C         140.1118  140.3736  168.2239 C.3     1  UNL1        0.1501
     22 H         138.6997  140.0978  162.7758 H       1  UNL1        0.1466
     23 H         137.3344  139.2025  163.2678 H       1  UNL1        0.1466
     24 C         142.3487  142.3467  162.7802 C.ar    1  UNL1        0.0192
     25 C         143.1557  141.4089  161.9321 C.ar    1  UNL1        0.0988
     26 N         143.2425  141.6242  160.4501 N.ar    1  UNL1       -0.2423
     27 C         142.5223  142.7772  159.8163 C.ar    1  UNL1        0.0988
     28 C         141.7152  143.7151  160.6644 C.ar    1  UNL1        0.0192
     29 C         140.9951  144.8681  160.0306 C.ar    1  UNL1        0.0015
     30 C         140.1880  145.8060  160.8787 C.ar    1  UNL1        0.0000
     31 C         140.1012  145.5907  162.3606 C.ar    1  UNL1        0.0000
     32 C         140.8215  144.4376  162.9944 C.ar    1  UNL1        0.0001
     33 C         141.6284  143.4998  162.1463 C.ar    1  UNL1        0.0030
@<TRIPOS>BOND
     1     1     2    1
     2     2     3    2
     3     3     4    1
     4     4     5    1
     5     5     6    1
     6     4     7    1
     7     7     8   ar
     8     8     9   ar
     9     9    24    1
    10    24    25   ar
    11    25    26   ar
    12    26    27   ar
    13    27    28   ar
    14    28    29   ar
    15    29    30   ar
    16    30    31   ar
    17    31    32   ar
    18    32    33   ar
    19     9    10   ar
    20    10    11   ar
    21    11    12   ar
    22    12    13    1
    23    13    14    1
    24    14    15    1
    25    15    16    1
    26    16    17    1
    27    14    18    1
    28    18    19    1
    29    19    20    1
    30    20    21    1
    31     6     2    1
    32    12     7   ar
    33    17    14    1
    34    21    18    1
    35    18     4    1
    36    33    24   ar
    37    33    28   ar
    38     1    22    1
    39     1    23    1
@<TRIPOS>MOLECULE
*****
 33 39 0 0 0
SMALL
GASTEIGER

@<TRIPOS>ATOM
      1 N         137.4179  140.9892  163.4602 N.pl3   1  UNL1       -0.3133
      2 C         138.2811  140.7432  164.6619 C.2     1  UNL1        0.2770
      3 N         139.6031  141.3927  164.9459 N.2     1  UNL1       -0.2202
      4 C         140.1129  140.8553  166.2501 C.3     1  UNL1        0.1580
      5 C         139.1060  139.8737  166.7724 C.3     1  UNL1        0.2351
      6 O         137.9739  139.8044  165.7908 O.2     1  UNL1       -0.4478
      7 C         141.0240  141.8572  165.6052 C.ar    1  UNL1        0.0357
      8 C         140.6450  142.4813  164.2949 C.ar    1  UNL1        0.0007
      9 C         141.5560  143.4832  163.6499 C.ar    1  UNL1        0.0014
     10 C         142.8463  143.8611  164.3152 C.ar    1  UNL1        0.0031
     11 C         143.2254  143.2370  165.6255 C.ar    1  UNL1        0.0366
     12 C         142.3142  142.2351  166.2705 C.ar    1  UNL1        0.1360
     13 O         142.6933  141.6110  167.5807 O.3     1  UNL1       -0.4826
     14 C         141.7822  140.6091  168.2257 C.3     1  UNL1        0.1395
     15 C         142.9489  140.7311  169.1606 C.3     1  UNL1        0.0404
     16 C         142.3183  139.7265  170.0788 C.3     1  UNL1        0.0072
     17 C         141.1515  139.6045  169.1440 C.3     1  UNL1        0.0404
     18 C         140.4920  140.2313  167.5604 C.3     1  UNL1        0.1141
     19 C         140.7462  140.5108  167.3805 C.3     1  UNL1        0.1501
     20 O         140.4790  140.2170  167.5696 O.3     1  UNL1       -0.3532
     21 C         140.7462  140.5108  167.3805 C.3     1  UNL1        0.1501
     22 H         137.7069  141.6279  162.7690 H       1  UNL1        0.1466
     23 H         136.5623  140.5121  163.3626 H       1  UNL1        0.1466
     24 C         141.1770  144.1073  162.3396 C.ar    1  UNL1        0.0192
     25 C         140.0317  145.0736  162.2726 C.ar    1  UNL1        0.0988
     26 N         139.6526  145.6976  160.9623 N.ar    1  UNL1       -0.2423
     27 C         140.4188  145.3554  159.7190 C.ar    1  UNL1        0.0988
     28 C         141.5642  144.3890  159.7860 C.ar    1  UNL1        0.0192
     29 C         142.3304  144.0468  158.5427 C.ar    1  UNL1        0.0015
     30 C         143.4758  143.0805  158.6097 C.ar    1  UNL1        0.0000
     31 C         143.8548  142.4564  159.9200 C.ar    1  UNL1        0.0000
     32 C         143.0886  142.7987  161.1633 C.ar    1  UNL1        0.0001
     33 C         141.9433  143.7650  161.0963 C.ar    1  UNL1        0.0030
@<TRIPOS>BOND
     1     1     2    1
     2     2     3    2
     3     3     4    1
     4     4     5    1
     5     5     6    1
     6     4     7    1
     7     7     8   ar
     8     8     9   ar
     9     9    24    1
    10    24    25   ar
    11    25    26   ar
    12    26    27   ar
    13    27    28   ar
    14    28    29   ar
    15    29    30   ar
    16    30    31   ar
    17    31    32   ar
    18    32    33   ar
    19     9    10   ar
    20    10    11   ar
    21    11    12   ar
    22    12    13    1
    23    13    14    1
    24    14    15    1
    25    15    16    1
    26    16    17    1
    27    14    18    1
    28    18    19    1
    29    19    20    1
    30    20    21    1
    31     6     2    1
    32    12     7   ar
    33    17    14    1
    34    21    18    1
    35    18     4    1
    36    33    24   ar
    37    33    28   ar
    38     1    22    1
    39     1    23    1
@<TRIPOS>MOLECULE
*****
 33 39 0 0 0
SMALL
GASTEIGER

@<TRIPOS>ATOM
      1 N         139.2469  145.1352  164.7659 N.pl3   1  UNL1       -0.3133
      2 C         140.0464  144.7862  163.5457 C.2     1  UNL1        0.2770
      3 N         141.1734  143.7982  163.4829 N.2     1  UNL1       -0.2202
      4 C         141.6829  143.7653  162.0725 C.3     1  UNL1        0.1580
      5 C         140.8708  144.7330  161.2636 C.3     1  UNL1        0.2351
      6 O         139.8594  145.3639  162.1742 O.2     1  UNL1       -0.4478
      7 C         142.4069  142.8394  163.0045 C.ar    1  UNL1        0.0357
      8 C         142.0067  142.7647  164.4482 C.ar    1  UNL1        0.0007
      9 C         142.7307  141.8388  165.3801 C.ar    1  UNL1        0.0014
     10 C         143.8549  140.9877  164.8684 C.ar    1  UNL1        0.0031
     11 C         144.2550  141.0624  163.4247 C.ar    1  UNL1        0.0366
     12 C         143.5310  141.9883  162.4927 C.ar    1  UNL1        0.1360
     13 O         143.9311  142.0631  161.0490 O.3     1  UNL1       -0.4826
     14 C         143.2071  142.9890  160.1170 C.3     1  UNL1        0.1395
     15 C         144.2446  142.3163  159.2677 C.3     1  UNL1        0.0404
     16 C         143.7730  143.0947  158.0752 C.3     1  UNL1        0.0072
     17 C         142.7355  143.7673  158.9246 C.3     1  UNL1        0.0404
     18 C         142.0830  143.8401  160.6288 C.3     1  UNL1        0.1141
     19 C         142.2850  143.5818  160.8888 C.3     1  UNL1        0.1501
     20 O         142.0727  143.8532  160.6155 O.3     1  UNL1       -0.3532
     21 C         142.2850  143.5818  160.8888 C.3     1  UNL1        0.1501
     22 H         139.4461  144.6997  165.6261 H       1  UNL1        0.1466
     23 H         138.5230  145.7998  164.7066 H       1  UNL1        0.1466
     24 C         142.3306  141.7641  166.8238 C.ar    1  UNL1        0.0192
     25 C         143.1720  142.4316  167.8709 C.ar    1  UNL1        0.0988
     26 N         142.7719  142.3568  169.3146 N.ar    1  UNL1       -0.2423
     27 C         141.5303  141.6145  169.7113 C.ar    1  UNL1        0.0988
     28 C         140.6888  140.9469  168.6642 C.ar    1  UNL1        0.0192
     29 C         139.4472  140.2047  169.0609 C.ar    1  UNL1        0.0015
     30 C         138.6056  139.5371  168.0138 C.ar    1  UNL1        0.0000
     31 C         139.0058  139.6118  166.5701 C.ar    1  UNL1        0.0000
     32 C         140.2475  140.3542  166.1735 C.ar    1  UNL1        0.0001
     33 C         141.0889  141.0217  167.2205 C.ar    1  UNL1        0.0030
@<TRIPOS>BOND
     1     1     2    1
     2     2     3    2
     3     3     4    1
     4     4     5    1
     5     5     6    1
     6     4     7    1
     7     7     8   ar
     8     8     9   ar
     9     9    24    1
    10    24    25   ar
    11    25    26   ar
    12    26    27   ar
    13    27    28   ar
    14    28    29   ar
    15    29    30   ar
    16    30    31   ar
    17    31    32   ar
    18    32    33   ar
    19     9    10   ar
    20    10    11   ar
    21    11    12   ar
    22    12    13    1
    23    13    14    1
    24    14    15    1
    25    15    16    1
    26    16    17    1
    27    14    18    1
    28    18    19    1
    29    19    20    1
    30    20    21    1
    31     6     2    1
    32    12     7   ar
    33    17    14    1
    34    21    18    1
    35    18     4    1
    36    33    24   ar
    37    33    28   ar
    38     1    22    1
    39     1    23    1
@<TRIPOS>MOLECULE
*****
 33 39 0 0 0
SMALL
GASTEIGER

@<TRIPOS>ATOM
      1 N         138.8338  137.7966  163.2857 N.pl3   1  UNL1       -0.3133
      2 C         139.0203  138.4610  164.6176 C.2     1  UNL1        0.2770
      3 N         140.1304  139.3999  164.9869 N.2     1  UNL1       -0.2202
      4 C         139.9256  139.8222  166.4115 C.3     1  UNL1        0.1580
      5 C         138.6889  139.1443  166.9227 C.3     1  UNL1        0.2351
      6 O         138.1295  138.3030  165.8140 O.2     1  UNL1       -0.4478
      7 C         141.1359  140.4269  165.7639 C.ar    1  UNL1        0.0357
      8 C         141.4686  140.0957  164.3392 C.ar    1  UNL1        0.0007
      9 C         142.6789  140.7003  163.6916 C.ar    1  UNL1        0.0014
     10 C         143.5566  141.6362  164.4686 C.ar    1  UNL1        0.0031
     11 C         143.2240  141.9674  165.8933 C.ar    1  UNL1        0.0366
     12 C         142.0136  141.3627  166.5409 C.ar    1  UNL1        0.1360
     13 O         141.6810  141.6939  167.9656 O.3     1  UNL1       -0.4826
     14 C         140.4706  141.0893  168.6132 C.3     1  UNL1        0.1395
     15 C         141.0879  141.9524  169.6734 C.3     1  UNL1        0.0404
     16 C         140.0002  141.5577  170.6280 C.3     1  UNL1        0.0072
     17 C         139.3829  140.6945  169.5678 C.3     1  UNL1        0.0404
     18 C         139.5930  140.1534  167.8362 C.3     1  UNL1        0.1141
     19 C         139.9306  140.3221  167.6555 C.3     1  UNL1        0.1501
     20 O         139.5757  140.1448  167.8454 O.3     1  UNL1       -0.3532
     21 C         139.9306  140.3221  167.6555 C.3     1  UNL1        0.1501
     22 H         139.4755  137.9639  162.5581 H       1  UNL1        0.1466
     23 H         138.0698  137.1933  163.1392 H       1  UNL1        0.1466
     24 C         143.0115  140.3691  162.2669 C.ar    1  UNL1        0.0192
     25 C         143.9001  139.2014  161.9562 C.ar    1  UNL1        0.0988
     26 N         144.2328  138.8702  160.5315 N.ar    1  UNL1       -0.2423
     27 C         143.6768  139.7067  159.4176 C.ar    1  UNL1        0.0988
     28 C         142.7881  140.8746  159.7282 C.ar    1  UNL1        0.0192
     29 C         142.2321  141.7112  158.6143 C.ar    1  UNL1        0.0015
     30 C         141.3434  142.8790  158.9250 C.ar    1  UNL1        0.0000
     31 C         141.0108  143.2102  160.3496 C.ar    1  UNL1        0.0000
     32 C         141.5668  142.3735  161.4636 C.ar    1  UNL1        0.0001
     33 C         142.4554  141.2058  161.1529 C.ar    1  UNL1        0.0030
@<TRIPOS>BOND
     1     1     2    1
     2     2     3    2
     3     3     4    1
     4     4     5    1
     5     5     6    1
     6     4     7    1
     7     7     8   ar
     8     8     9   ar
     9     9    24    1
    10    24    25   ar
    11    25    26   ar
    12    26    27   ar
    13    27    28   ar
    14    28    29   ar
    15    29    30   ar
    16    30    31   ar
    17    31    32   ar
    18    32    33   ar
    19     9    10   ar
    20    10    11   ar
    21    11    12   ar
    22    12    13    1
    23    13    14    1
    24    14    15    1
    25    15    16    1
    26    16    17    1
    27    14    18    1
    28    18    19    1
    29    19    20    1
    30    20    21    1
    31     6     2    1
    32    12     7   ar
    33    17    14    1
    34    21    18    1
    35    18     4    1
    36    33    24   ar
    37    33    28   ar
    38     1    22    1
    39     1    23    1
@<TRIPOS>MOLECULE
*****
 33 39 0 0 0
SMALL
GASTEIGER

@<TRIPOS>ATOM
      1 N         138.6276  139.6771  163.2658 N.pl3   1  UNL1       -0.3133
      2 C         138.9332  139.7985  164.7293 C.2     1  UNL1        0.2770
      3 N         140.1061  140.5165  165.3286 N.2     1  UNL1       -0.2202
      4 C         140.0173  140.3851  166.8201 C.3     1  UNL1        0.1580
      5 C         138.7896  139.5858  167.1427 C.3     1  UNL1        0.2351
      6 O         138.1196  139.2234  165.8506 O.2     1  UNL1       -0.4478
      7 C         141.2063  141.1671  166.3462 C.ar    1  UNL1        0.0357
      8 C         141.4265  141.3812  164.8780 C.ar    1  UNL1        0.0007
      9 C         142.6155  142.1633  164.4041 C.ar    1  UNL1        0.0014
     10 C         143.5844  142.7314  165.3985 C.ar    1  UNL1        0.0031
     11 C         143.3642  142.5173  166.8667 C.ar    1  UNL1        0.0366
     12 C         142.1751  141.7351  167.3405 C.ar    1  UNL1        0.1360
     13 O         141.9549  141.5210  168.8088 O.3     1  UNL1       -0.4826
     14 C         140.7660  140.7389  169.2827 C.3     1  UNL1        0.1395
     15 C         141.4912  141.1387  170.5334 C.3     1  UNL1        0.0404
     16 C         140.4546  140.4361  171.3591 C.3     1  UNL1        0.0072
     17 C         139.7293  140.0363  170.1084 C.3     1  UNL1        0.0404
     18 C         139.7971  140.1710  168.2883 C.3     1  UNL1        0.1141
     19 C         140.1288  140.3891  168.1561 C.3     1  UNL1        0.1501
     20 O         139.7802  140.1598  168.2951 O.3     1  UNL1       -0.3532
     21 C         140.1288  140.3891  168.1561 C.3     1  UNL1        0.1501
     22 H         139.2251  140.0915  162.6022 H       1  UNL1        0.1466
     23 H         137.8295  139.1829  162.9690 H       1  UNL1        0.1466
     24 C         142.8356  142.3774  162.9359 C.ar    1  UNL1        0.0192
     25 C         142.7207  143.7548  162.3533 C.ar    1  UNL1        0.0988
     26 N         142.9409  143.9689  160.8850 N.ar    1  UNL1       -0.2423
     27 C         143.2760  142.8056  159.9994 C.ar    1  UNL1        0.0988
     28 C         143.3909  141.4281  160.5820 C.ar    1  UNL1        0.0192
     29 C         143.7260  140.2648  159.6964 C.ar    1  UNL1        0.0015
     30 C         143.8410  138.8873  160.2790 C.ar    1  UNL1        0.0000
     31 C         143.6208  138.6732  161.7472 C.ar    1  UNL1        0.0000
     32 C         143.2857  139.8366  162.6328 C.ar    1  UNL1        0.0001
     33 C         143.1708  141.2140  162.0502 C.ar    1  UNL1        0.0030
@<TRIPOS>BOND
     1     1     2    1
     2     2     3    2
     3     3     4    1
     4     4     5    1
     5     5     6    1
     6     4     7    1
     7     7     8   ar
     8     8     9   ar
     9     9    24    1
    10    24    25   ar
    11    25    26   ar
    12    26    27   ar
    13    27    28   ar
    14    28    29   ar
    15    29    30   ar
    16    30    31   ar
    17    31    32   ar
    18    32    33   ar
    19     9    10   ar
    20    10    11   ar
    21    11    12   ar
    22    12    13    1
    23    13    14    1
    24    14    15    1
    25    15    16    1
    26    16    17    1
    27    14    18    1
    28    18    19    1
    29    19    20    1
    30    20    21    1
    31     6     2    1
    32    12     7   ar
    33    17    14    1
    34    21    18    1
    35    18     4    1
    36    33    24   ar
    37    33    28   ar
    38     1    22    1
    39     1    23    1
@<TRIPOS>MOLECULE
*****
 33 39 0 0 0
SMALL
GASTEIGER

@<TRIPOS>ATOM
      1 N         138.5549  144.8825  165.4734 N.pl3   1  UNL1       -0.3133
      2 C         139.4281  144.5473  164.3007 C.2     1  UNL1        0.2770
      3 N         140.3264  143.3517  164.1835 N.2     1  UNL1       -0.2202
      4 C         141.0098  143.4143  162.8498 C.3     1  UNL1        0.1580
      5 C         140.5338  144.6486  162.1426 C.3     1  UNL1        0.2351
      6 O         139.5563  145.3488  163.0393 O.2     1  UNL1       -0.4478
      7 C         141.3918  142.2219  163.6757 C.ar    1  UNL1        0.0357
      8 C         140.7877  142.0261  165.0346 C.ar    1  UNL1        0.0007
      9 C         141.1697  140.8337  165.8605 C.ar    1  UNL1        0.0014
     10 C         142.1559  139.8370  165.3275 C.ar    1  UNL1        0.0031
     11 C         142.7600  140.0327  163.9686 C.ar    1  UNL1        0.0366
     12 C         142.3780  141.2252  163.1427 C.ar    1  UNL1        0.1360
     13 O         142.9821  141.4210  161.7837 O.3     1  UNL1       -0.4826
     14 C         142.6001  142.6135  160.9578 C.3     1  UNL1        0.1395
     15 C         143.5859  141.8582  160.1165 C.3     1  UNL1        0.0404
     16 C         143.4545  142.8904  159.0360 C.3     1  UNL1        0.0072
     17 C         142.4687  143.6456  159.8773 C.3     1  UNL1        0.0404
     18 C         141.6139  143.6101  161.4909 C.3     1  UNL1        0.1141
     19 C         141.7205  143.2774  161.7213 C.3     1  UNL1        0.1501
     20 O         141.6085  143.6271  161.4791 O.3     1  UNL1       -0.3532
     21 C         141.7205  143.2774  161.7213 C.3     1  UNL1        0.1501
     22 H         138.5388  144.2910  166.2602 H       1  UNL1        0.1466
     23 H         137.9978  145.6941  165.4562 H       1  UNL1        0.1466
     24 C         140.5656  140.6379  167.2194 C.ar    1  UNL1        0.0192
     25 C         139.3008  139.8458  167.3709 C.ar    1  UNL1        0.0988
     26 N         138.6967  139.6500  168.7298 N.ar    1  UNL1       -0.2423
     27 C         139.3573  140.2463  169.9373 C.ar    1  UNL1        0.0988
     28 C         140.6221  141.0384  169.7859 C.ar    1  UNL1        0.0192
     29 C         141.2827  141.6347  170.9933 C.ar    1  UNL1        0.0015
     30 C         142.5476  142.4268  170.8419 C.ar    1  UNL1        0.0000
     31 C         143.1517  142.6226  169.4830 C.ar    1  UNL1        0.0000
     32 C         142.4910  142.0263  168.2755 C.ar    1  UNL1        0.0001
     33 C         141.2263  141.2342  168.4269 C.ar    1  UNL1        0.0030
@<TRIPOS>BOND
     1     1     2    1
     2     2     3    2
     3     3     4    1
     4     4     5    1
     5     5     6    1
     6     4     7    1
     7     7     8   ar
     8     8     9   ar
     9     9    24    1
    10    24    25   ar
    11    25    26   ar
    12    26    27   ar
    13    27    28   ar
    14    28    29   ar
    15    29    30   ar
    16    30    31   ar
    17    31    32   ar
    18    32    33   ar
    19     9    10   ar
    20    10    11   ar
    21    11    12   ar
    22    12    13    1
    23    13    14    1
    24    14    15    1
    25    15    16    1
    26    16    17    1
    27    14    18    1
    28    18    19    1
    29    19    20    1
    30    20    21    1
    31     6     2    1
    32    12     7   ar
    33    17    14    1
    34    21    18    1
    35    18     4    1
    36    33    24   ar
    37    33    28   ar
    38     1    22    1
    39     1    23    1
@<TRIPOS>MOLECULE
*****
 33 39 0 0 0
SMALL
GASTEIGER

@<TRIPOS>ATOM
      1 N         144.8748  144.1099  165.7602 N.pl3   1  UNL1       -0.3133
      2 C         143.9862  144.0763  164.5523 C.2     1  UNL1        0.2770
      3 N         142.8087  143.1695  164.3487 N.2     1  UNL1       -0.2202
      4 C         142.2138  143.4763  163.0064 C.3     1  UNL1        0.1580
      5 C         143.0236  144.5729  162.3803 C.3     1  UNL1        0.2351
      6 O         144.1190  144.9436  163.3357 O.2     1  UNL1       -0.4478
      7 C         141.5014  142.3894  163.7554 C.ar    1  UNL1        0.0357
      8 C         141.9838  141.9741  165.1136 C.ar    1  UNL1        0.0007
      9 C         141.2714  140.8871  165.8626 C.ar    1  UNL1        0.0014
     10 C         140.0765  140.2154  165.2533 C.ar    1  UNL1        0.0031
     11 C         139.5941  140.6308  163.8951 C.ar    1  UNL1        0.0366
     12 C         140.3066  141.7178  163.1461 C.ar    1  UNL1        0.1360
     13 O         139.8242  142.1331  161.7879 O.3     1  UNL1       -0.4826
     14 C         140.5366  143.2201  161.0390 C.3     1  UNL1        0.1395
     15 C         139.4168  142.7958  160.1355 C.3     1  UNL1        0.0404
     16 C         139.8543  143.8074  159.1181 C.3     1  UNL1        0.0072
     17 C         140.9741  144.2317  160.0215 C.3     1  UNL1        0.0404
     18 C         141.7314  143.8917  161.6482 C.3     1  UNL1        0.1141
     19 C         141.5326  143.5884  161.8571 C.3     1  UNL1        0.1501
     20 O         141.7415  143.9072  161.6375 O.3     1  UNL1       -0.3532
     21 C         141.5326  143.5884  161.8571 C.3     1  UNL1        0.1501
     22 H         144.7061  143.4976  166.5125 H       1  UNL1        0.1466
     23 H         145.6266  144.7441  165.8008 H       1  UNL1        0.1466
     24 C         141.7539  140.4718  167.2208 C.ar    1  UNL1        0.0192
     25 C         142.5695  139.2228  167.3774 C.ar    1  UNL1        0.0988
     26 N         143.0520  138.8075  168.7357 N.ar    1  UNL1       -0.2423
     27 C         142.7187  139.6411  169.9372 C.ar    1  UNL1        0.0988
     28 C         141.9030  140.8902  169.7806 C.ar    1  UNL1        0.0192
     29 C         141.5697  141.7239  170.9822 C.ar    1  UNL1        0.0015
     30 C         140.7540  142.9730  170.8256 C.ar    1  UNL1        0.0000
     31 C         140.2716  143.3883  169.4674 C.ar    1  UNL1        0.0000
     32 C         140.6049  142.5546  168.2658 C.ar    1  UNL1        0.0001
     33 C         141.4206  141.3056  168.4224 C.ar    1  UNL1        0.0030
@<TRIPOS>BOND
     1     1     2    1
     2     2     3    2
     3     3     4    1
     4     4     5    1
     5     5     6    1
     6     4     7    1
     7     7     8   ar
     8     8     9   ar
     9     9    24    1
    10    24    25   ar
    11    25    26   ar
    12    26    27   ar
    13    27    28   ar
    14    28    29   ar
    15    29    30   ar
    16    30    31   ar
    17    31    32   ar
    18    32    33   ar
    19     9    10   ar
    20    10    11   ar
    21    11    12   ar
    22    12    13    1
    23    13    14    1
    24    14    15    1
    25    15    16    1
    26    16    17    1
    27    14    18    1
    28    18    19    1
    29    19    20    1
    30    20    21    1
    31     6     2    1
    32    12     7   ar
    33    17    14    1
    34    21    18    1
    35    18     4    1
    36    33    24   ar
    37    33    28   ar
    38     1    22    1
    39     1    23    1
