@<TRIPOS>MOLECULE
*****
 27 29 0 0 0
SMALL
GASTEIGER

@<TRIPOS>ATOM
      1 C         140.1113  144.5898  163.7057 C.ar    1  UNL1        0.0621
      2 C         141.1633  143.5955  164.0989 C.ar    1  UNL1        0.0294
      3 C         142.2932  143.2888  163.1614 C.ar    1  UNL1        0.0520
      4 C         142.3712  143.9765  161.8306 C.ar    1  UNL1        0.0490
      5 C         141.3193  144.9709  161.4374 C.ar    1  UNL1        0.1350
      6 N         140.1893  145.2775  162.3750 N.ar    1  UNL1       -0.2347
      7 N         143.3452  142.2944  163.5545 N.pl3   1  UNL1       -0.3027
      8 C         142.9570  141.0368  164.2739 C.3     1  UNL1        0.1231
      9 C         144.0089  140.0424  164.6671 C.3     1  UNL1        0.1636
     10 O         145.4492  140.3057  164.3409 O.3     1  UNL1       -0.3501
     11 C         145.8375  141.5633  163.6215 C.3     1  UNL1        0.1636
     12 C         144.7854  142.5577  163.2283 C.3     1  UNL1        0.1231
     13 N         141.3973  145.6586  160.1066 N.am    1  UNL1       -0.2693
     14 C         140.4811  145.2444  158.9935 C.2     1  UNL1        0.2277
     15 C         140.5591  145.9321  157.6627 C.3     1  UNL1        0.0950
     16 O         139.4868  144.1425  159.2112 O.2     1  UNL1       -0.2747
     17 H         142.0498  146.3817  159.9637 H       1  UNL1        0.1563
     18 C         138.9813  144.8965  164.6434 C.3     1  UNL1        0.0556
     19 C         137.7679  144.0150  164.6692 C.3     1  UNL1        0.0916
     20 C         138.2914  140.1717  164.5248 C.ar    1  UNL1        0.1377
     21 O         138.3021  141.4680  165.2796 O.2     1  UNL1       -0.4430
     22 C         137.8920  142.5581  164.3343 C.ar    1  UNL1        0.2053
     23 N         137.6279  141.9356  162.9954 N.ar    1  UNL1       -0.2168
     24 C         137.8747  140.4607  163.1131 C.ar    1  UNL1        0.0923
     25 C         137.7302  139.4521  162.0124 C.3     1  UNL1        0.0551
     26 C         138.0364  138.3735  166.3827 C.3     1  UNL1        0.0085
     27 C         138.6367  138.8232  165.0836 C.3     1  UNL1        0.0658
@<TRIPOS>BOND
     1    26    27    1
     2    27    20    1
     3    20    21   ar
     4    21    22   ar
     5    22    19    1
     6    19    18    1
     7    18     1    1
     8     1     2   ar
     9     2     3   ar
    10     3     7    1
    11     7     8    1
    12     8     9    1
    13     9    10    1
    14    10    11    1
    15    11    12    1
    16     3     4   ar
    17     4     5   ar
    18     5    13    1
    19    13    14   am
    20    14    15    1
    21    14    16    2
    22     5     6   ar
    23    22    23   ar
    24    23    24   ar
    25    24    25    1
    26    24    20   ar
    27     6     1   ar
    28    12     7    1
    29    13    17    1
@<TRIPOS>MOLECULE
*****
 27 29 0 0 0
SMALL
GASTEIGER

@<TRIPOS>ATOM
      1 C         140.1544  143.6064  165.3785 C.ar    1  UNL1        0.0621
      2 C         139.9846  143.0490  166.7607 C.ar    1  UNL1        0.0294
      3 C         141.1531  142.4290  167.4680 C.ar    1  UNL1        0.0520
      4 C         142.4912  142.3663  166.7931 C.ar    1  UNL1        0.0490
      5 C         142.6609  142.9237  165.4109 C.ar    1  UNL1        0.1350
      6 N         141.4925  143.5438  164.7036 N.ar    1  UNL1       -0.2347
      7 N         140.9834  141.8715  168.8502 N.pl3   1  UNL1       -0.3027
      8 C         141.8081  142.4089  169.9821 C.3     1  UNL1        0.1231
      9 C         141.6385  141.8515  171.3643 C.3     1  UNL1        0.1636
     10 O         140.6441  140.7567  171.6147 O.3     1  UNL1       -0.3501
     11 C         139.8193  140.2194  170.4829 C.3     1  UNL1        0.1636
     12 C         139.9890  140.7768  169.1006 C.3     1  UNL1        0.1231
     13 N         143.9990  142.8611  164.7360 N.am    1  UNL1       -0.2693
     14 C         144.5167  141.5524  164.2170 C.2     1  UNL1        0.2277
     15 C         145.8549  141.4898  163.5421 C.3     1  UNL1        0.0950
     16 O         143.6963  140.3063  164.3729 O.2     1  UNL1       -0.2747
     17 H         144.5375  143.6789  164.6337 H       1  UNL1        0.1563
     18 C         138.9859  144.2265  164.6712 C.3     1  UNL1        0.0556
     19 C         137.7507  143.4163  164.4109 C.3     1  UNL1        0.0916
     20 C         138.3133  139.7463  163.2794 C.ar    1  UNL1        0.1377
     21 O         138.3952  140.8238  164.3198 O.2     1  UNL1       -0.4430
     22 C         137.8561  142.0887  163.7205 C.ar    1  UNL1        0.2053
     23 N         137.4410  141.7932  162.3097 N.ar    1  UNL1       -0.2168
     24 C         137.7235  140.3455  162.0370 C.ar    1  UNL1        0.0923
     25 C         137.4622  139.6237  160.7484 C.3     1  UNL1        0.0551
     26 C         138.9424  137.7567  164.8272 C.3     1  UNL1        0.0085
     27 C         138.7452  138.3201  163.4511 C.3     1  UNL1        0.0658
@<TRIPOS>BOND
     1    26    27    1
     2    27    20    1
     3    20    21   ar
     4    21    22   ar
     5    22    19    1
     6    19    18    1
     7    18     1    1
     8     1     2   ar
     9     2     3   ar
    10     3     7    1
    11     7     8    1
    12     8     9    1
    13     9    10    1
    14    10    11    1
    15    11    12    1
    16     3     4   ar
    17     4     5   ar
    18     5    13    1
    19    13    14   am
    20    14    15    1
    21    14    16    2
    22     5     6   ar
    23    22    23   ar
    24    23    24   ar
    25    24    25    1
    26    24    20   ar
    27     6     1   ar
    28    12     7    1
    29    13    17    1
@<TRIPOS>MOLECULE
*****
 27 29 0 0 0
SMALL
GASTEIGER

@<TRIPOS>ATOM
      1 C         140.1958  143.5329  164.5908 C.ar    1  UNL1        0.0621
      2 C         140.2861  143.3058  166.0707 C.ar    1  UNL1        0.0294
      3 C         140.0357  141.9393  166.6364 C.ar    1  UNL1        0.0520
      4 C         139.6950  140.8000  165.7221 C.ar    1  UNL1        0.0490
      5 C         139.6047  141.0271  164.2422 C.ar    1  UNL1        0.1350
      6 N         139.8551  142.3936  163.6765 N.ar    1  UNL1       -0.2347
      7 N         140.1260  141.7121  168.1164 N.pl3   1  UNL1       -0.3027
      8 C         139.9783  140.3270  168.6729 C.3     1  UNL1        0.1231
      9 C         140.0686  140.0997  170.1528 C.3     1  UNL1        0.1636
     10 O         140.3066  141.2576  171.0763 O.3     1  UNL1       -0.3501
     11 C         140.4543  142.6427  170.5198 C.3     1  UNL1        0.1636
     12 C         140.3640  142.8699  169.0398 C.3     1  UNL1        0.1231
     13 N         139.2640  139.8878  163.3279 N.am    1  UNL1       -0.2693
     14 C         138.0126  139.9371  162.5024 C.2     1  UNL1        0.2277
     15 C         137.6720  138.7977  161.5881 C.3     1  UNL1        0.0950
     16 O         137.1019  141.1257  162.5911 O.2     1  UNL1       -0.2747
     17 H         139.8618  139.1077  163.2697 H       1  UNL1        0.1563
     18 C         140.4461  144.8995  164.0251 C.3     1  UNL1        0.0556
     19 C         141.8506  145.3589  163.7677 C.3     1  UNL1        0.0916
     20 C         144.6272  142.7107  163.1811 C.ar    1  UNL1        0.1377
     21 O         143.7600  143.5182  164.1011 O.2     1  UNL1       -0.4430
     22 C         142.8756  144.3891  163.2588 C.ar    1  UNL1        0.2053
     23 N         143.1961  144.1199  161.8184 N.ar    1  UNL1       -0.2168
     24 C         144.2786  143.0827  161.7703 C.ar    1  UNL1        0.0923
     25 C         144.9029  142.5167  160.5295 C.3     1  UNL1        0.0551
     26 C         145.2489  140.3112  163.9593 C.3     1  UNL1        0.0085
     27 C         145.6612  141.7076  163.5986 C.3     1  UNL1        0.0658
@<TRIPOS>BOND
     1    26    27    1
     2    27    20    1
     3    20    21   ar
     4    21    22   ar
     5    22    19    1
     6    19    18    1
     7    18     1    1
     8     1     2   ar
     9     2     3   ar
    10     3     7    1
    11     7     8    1
    12     8     9    1
    13     9    10    1
    14    10    11    1
    15    11    12    1
    16     3     4   ar
    17     4     5   ar
    18     5    13    1
    19    13    14   am
    20    14    15    1
    21    14    16    2
    22     5     6   ar
    23    22    23   ar
    24    23    24   ar
    25    24    25    1
    26    24    20   ar
    27     6     1   ar
    28    12     7    1
    29    13    17    1
@<TRIPOS>MOLECULE
*****
 27 29 0 0 0
SMALL
GASTEIGER

@<TRIPOS>ATOM
      1 C         140.0375  143.6305  165.3935 C.ar    1  UNL1        0.0621
      2 C         139.9433  143.1746  166.8194 C.ar    1  UNL1        0.0294
      3 C         140.9593  142.2180  167.3696 C.ar    1  UNL1        0.0520
      4 C         142.0694  141.7174  166.4938 C.ar    1  UNL1        0.0490
      5 C         142.1637  142.1733  165.0680 C.ar    1  UNL1        0.1350
      6 N         141.1477  143.1299  164.5178 N.ar    1  UNL1       -0.2347
      7 N         140.8651  141.7620  168.7955 N.pl3   1  UNL1       -0.3027
      8 C         139.9692  140.6151  169.1585 C.3     1  UNL1        0.1231
      9 C         139.8750  140.1591  170.5844 C.3     1  UNL1        0.1636
     10 O         140.6767  140.8500  171.6474 O.3     1  UNL1       -0.3501
     11 C         141.5727  141.9970  171.2844 C.3     1  UNL1        0.1636
     12 C         141.6669  142.4530  169.8584 C.3     1  UNL1        0.1231
     13 N         143.2738  141.6727  164.1922 N.am    1  UNL1       -0.2693
     14 C         144.6400  142.2843  164.2899 C.2     1  UNL1        0.2277
     15 C         145.7501  141.7836  163.4141 C.3     1  UNL1        0.0950
     16 O         144.8960  143.3966  165.2632 O.2     1  UNL1       -0.2747
     17 H         143.1058  140.9427  163.5534 H       1  UNL1        0.1563
     18 C         139.0215  144.5872  164.8433 C.3     1  UNL1        0.0556
     19 C         137.7716  144.0651  164.1990 C.3     1  UNL1        0.0916
     20 C         137.7598  141.1572  161.6281 C.ar    1  UNL1        0.1377
     21 O         137.5182  141.6837  163.0118 O.2     1  UNL1       -0.4430
     22 C         137.8646  143.1431  163.0194 C.ar    1  UNL1        0.2053
     23 N         138.3204  143.5186  161.6406 N.ar    1  UNL1       -0.2168
     24 C         138.2556  142.2913  160.7807 C.ar    1  UNL1        0.0923
     25 C         138.6223  142.2119  159.3285 C.3     1  UNL1        0.0551
     26 C         138.4156  138.6442  161.7001 C.3     1  UNL1        0.0085
     27 C         137.5436  139.7447  161.1720 C.3     1  UNL1        0.0658
@<TRIPOS>BOND
     1    26    27    1
     2    27    20    1
     3    20    21   ar
     4    21    22   ar
     5    22    19    1
     6    19    18    1
     7    18     1    1
     8     1     2   ar
     9     2     3   ar
    10     3     7    1
    11     7     8    1
    12     8     9    1
    13     9    10    1
    14    10    11    1
    15    11    12    1
    16     3     4   ar
    17     4     5   ar
    18     5    13    1
    19    13    14   am
    20    14    15    1
    21    14    16    2
    22     5     6   ar
    23    22    23   ar
    24    23    24   ar
    25    24    25    1
    26    24    20   ar
    27     6     1   ar
    28    12     7    1
    29    13    17    1
@<TRIPOS>MOLECULE
*****
 27 29 0 0 0
SMALL
GASTEIGER

@<TRIPOS>ATOM
      1 C         143.6142  142.2828  165.7918 C.ar    1  UNL1        0.0621
      2 C         143.0011  142.5288  167.1384 C.ar    1  UNL1        0.0294
      3 C         142.2098  141.4466  167.8112 C.ar    1  UNL1        0.0520
      4 C         142.0316  140.1185  167.1372 C.ar    1  UNL1        0.0490
      5 C         142.6446  139.8725  165.7905 C.ar    1  UNL1        0.1350
      6 N         143.4360  140.9547  165.1178 N.ar    1  UNL1       -0.2347
      7 N         141.5967  141.6926  169.1579 N.pl3   1  UNL1       -0.3027
      8 C         142.0950  140.9420  170.3572 C.3     1  UNL1        0.1231
      9 C         141.4820  141.1879  171.7039 C.3     1  UNL1        0.1636
     10 O         140.3705  142.1844  171.8514 O.3     1  UNL1       -0.3501
     11 C         139.8722  142.9350  170.6521 C.3     1  UNL1        0.1636
     12 C         140.4853  142.6890  169.3053 C.3     1  UNL1        0.1231
     13 N         142.4664  138.5443  165.1166 N.am    1  UNL1       -0.2693
     14 C         141.2229  138.2657  164.3254 C.2     1  UNL1        0.2277
     15 C         141.0446  136.9375  163.6514 C.3     1  UNL1        0.0950
     16 O         140.1576  139.3152  164.2081 O.2     1  UNL1       -0.2747
     17 H         143.1655  137.8555  165.1936 H       1  UNL1        0.1563
     18 C         144.4056  143.3650  165.1189 C.3     1  UNL1        0.0556
     19 C         143.9853  143.8747  163.7723 C.3     1  UNL1        0.0916
     20 C         140.2020  144.7379  163.8561 C.ar    1  UNL1        0.1377
     21 O         141.4093  144.0799  164.4557 O.2     1  UNL1       -0.4430
     22 C         142.5784  144.3475  163.5549 C.ar    1  UNL1        0.2053
     23 N         142.0938  145.1709  162.3986 N.ar    1  UNL1       -0.2168
     24 C         140.6251  145.4122  162.5847 C.ar    1  UNL1        0.0923
     25 C         139.7356  146.1910  161.6616 C.3     1  UNL1        0.0551
     26 C         138.5974  145.0495  165.8755 C.3     1  UNL1        0.0085
     27 C         138.8152  144.7241  164.4275 C.3     1  UNL1        0.0658
@<TRIPOS>BOND
     1    26    27    1
     2    27    20    1
     3    20    21   ar
     4    21    22   ar
     5    22    19    1
     6    19    18    1
     7    18     1    1
     8     1     2   ar
     9     2     3   ar
    10     3     7    1
    11     7     8    1
    12     8     9    1
    13     9    10    1
    14    10    11    1
    15    11    12    1
    16     3     4   ar
    17     4     5   ar
    18     5    13    1
    19    13    14   am
    20    14    15    1
    21    14    16    2
    22     5     6   ar
    23    22    23   ar
    24    23    24   ar
    25    24    25    1
    26    24    20   ar
    27     6     1   ar
    28    12     7    1
    29    13    17    1
@<TRIPOS>MOLECULE
*****
 27 29 0 0 0
SMALL
GASTEIGER

@<TRIPOS>ATOM
      1 C         139.9087  143.8741  165.3968 C.ar    1  UNL1        0.0621
      2 C         141.0862  143.5849  164.5138 C.ar    1  UNL1        0.0294
      3 C         142.2072  142.7243  165.0165 C.ar    1  UNL1        0.0520
      4 C         142.1506  142.1528  166.4022 C.ar    1  UNL1        0.0490
      5 C         140.9730  142.4419  167.2853 C.ar    1  UNL1        0.1350
      6 N         139.8521  143.3026  166.7826 N.ar    1  UNL1       -0.2347
      7 N         143.3848  142.4351  164.1335 N.pl3   1  UNL1       -0.3027
      8 C         143.4400  143.0041  162.7467 C.3     1  UNL1        0.1231
      9 C         144.6175  142.7150  161.8637 C.3     1  UNL1        0.1636
     10 O         145.7399  141.8568  162.3675 O.3     1  UNL1       -0.3501
     11 C         145.6847  141.2877  163.7543 C.3     1  UNL1        0.1636
     12 C         144.5071  141.5769  164.6373 C.3     1  UNL1        0.1231
     13 N         140.9164  141.8704  168.6710 N.am    1  UNL1       -0.2693
     14 C         140.0768  140.6589  168.9489 C.2     1  UNL1        0.2277
     15 C         140.0202  140.0874  170.3346 C.3     1  UNL1        0.0950
     16 O         139.2938  140.0188  167.8410 O.2     1  UNL1       -0.2747
     17 H         141.4303  142.2905  169.3981 H       1  UNL1        0.1563
     18 C         138.7877  144.7348  164.8942 C.3     1  UNL1        0.0556
     19 C         137.5752  144.1026  164.2776 C.3     1  UNL1        0.0916
     20 C         137.7504  141.1146  161.8063 C.ar    1  UNL1        0.1377
     21 O         137.4731  141.6713  163.1714 O.2     1  UNL1       -0.4430
     22 C         137.7282  143.1489  163.1299 C.ar    1  UNL1        0.2053
     23 N         138.1631  143.5054  161.7393 N.ar    1  UNL1       -0.2168
     24 C         138.1768  142.2482  160.9213 C.ar    1  UNL1        0.0923
     25 C         138.5512  142.1429  159.4727 C.3     1  UNL1        0.0551
     26 C         138.3335  138.6102  162.1780 C.3     1  UNL1        0.0085
     27 C         137.6235  139.6768  161.3980 C.3     1  UNL1        0.0658
@<TRIPOS>BOND
     1    26    27    1
     2    27    20    1
     3    20    21   ar
     4    21    22   ar
     5    22    19    1
     6    19    18    1
     7    18     1    1
     8     1     2   ar
     9     2     3   ar
    10     3     7    1
    11     7     8    1
    12     8     9    1
    13     9    10    1
    14    10    11    1
    15    11    12    1
    16     3     4   ar
    17     4     5   ar
    18     5    13    1
    19    13    14   am
    20    14    15    1
    21    14    16    2
    22     5     6   ar
    23    22    23   ar
    24    23    24   ar
    25    24    25    1
    26    24    20   ar
    27     6     1   ar
    28    12     7    1
    29    13    17    1
@<TRIPOS>MOLECULE
*****
 27 29 0 0 0
SMALL
GASTEIGER

@<TRIPOS>ATOM
      1 C         139.2624  140.0787  165.5772 C.ar    1  UNL1        0.0621
      2 C         139.7684  140.3579  166.9614 C.ar    1  UNL1        0.0294
      3 C         140.4319  141.6678  167.2673 C.ar    1  UNL1        0.0520
      4 C         140.5896  142.6986  166.1889 C.ar    1  UNL1        0.0490
      5 C         140.0837  142.4194  164.8048 C.ar    1  UNL1        0.1350
      6 N         139.4201  141.1094  164.4989 N.ar    1  UNL1       -0.2347
      7 N         140.9379  141.9471  168.6515 N.pl3   1  UNL1       -0.3027
      8 C         142.3449  142.4263  168.8532 C.3     1  UNL1        0.1231
      9 C         142.8509  142.7056  170.2374 C.3     1  UNL1        0.1636
     10 O         141.9499  142.5057  171.4199 O.3     1  UNL1       -0.3501
     11 C         140.5429  142.0266  171.2182 C.3     1  UNL1        0.1636
     12 C         140.0369  141.7473  169.8339 C.3     1  UNL1        0.1231
     13 N         140.2413  143.4501  163.7265 N.am    1  UNL1       -0.2693
     14 C         139.1325  144.4216  163.4497 C.2     1  UNL1        0.2277
     15 C         139.2902  145.4524  162.3714 C.3     1  UNL1        0.0950
     16 O         137.8660  144.3625  164.2513 O.2     1  UNL1       -0.2747
     17 H         141.0725  143.4889  163.2004 H       1  UNL1        0.1563
     18 C         138.5988  138.7686  165.2712 C.3     1  UNL1        0.0556
     19 C         139.4214  137.5989  164.8183 C.3     1  UNL1        0.0916
     20 C         142.8171  138.4551  163.1444 C.ar    1  UNL1        0.1377
     21 O         141.9159  138.4337  164.3434 O.2     1  UNL1       -0.4430
     22 C         140.6117  137.8174  163.9320 C.ar    1  UNL1        0.2053
     23 N         140.7068  137.4579  162.4788 N.ar    1  UNL1       -0.2168
     24 C         142.0697  137.8521  161.9921 C.ar    1  UNL1        0.0923
     25 C         142.5934  137.6743  160.5978 C.3     1  UNL1        0.0551
     26 C         144.8250  139.5972  164.3336 C.3     1  UNL1        0.0085
     27 C         144.2193  138.9863  163.1048 C.3     1  UNL1        0.0658
@<TRIPOS>BOND
     1    26    27    1
     2    27    20    1
     3    20    21   ar
     4    21    22   ar
     5    22    19    1
     6    19    18    1
     7    18     1    1
     8     1     2   ar
     9     2     3   ar
    10     3     7    1
    11     7     8    1
    12     8     9    1
    13     9    10    1
    14    10    11    1
    15    11    12    1
    16     3     4   ar
    17     4     5   ar
    18     5    13    1
    19    13    14   am
    20    14    15    1
    21    14    16    2
    22     5     6   ar
    23    22    23   ar
    24    23    24   ar
    25    24    25    1
    26    24    20   ar
    27     6     1   ar
    28    12     7    1
    29    13    17    1
@<TRIPOS>MOLECULE
*****
 27 29 0 0 0
SMALL
GASTEIGER

@<TRIPOS>ATOM
      1 C         142.1082  139.4052  165.6397 C.ar    1  UNL1        0.0621
      2 C         141.6445  139.7451  167.0251 C.ar    1  UNL1        0.0294
      3 C         141.9261  141.1023  167.5983 C.ar    1  UNL1        0.0520
      4 C         142.6714  142.1196  166.7862 C.ar    1  UNL1        0.0490
      5 C         143.1351  141.7797  165.4008 C.ar    1  UNL1        0.1350
      6 N         142.8535  140.4225  164.8275 N.ar    1  UNL1       -0.2347
      7 N         141.4624  141.4423  168.9838 N.pl3   1  UNL1       -0.3027
      8 C         140.4130  142.4948  169.1863 C.3     1  UNL1        0.1231
      9 C         139.9493  142.8347  170.5717 C.3     1  UNL1        0.1636
     10 O         140.5350  142.1222  171.7547 O.3     1  UNL1       -0.3501
     11 C         141.5844  141.0697  171.5522 C.3     1  UNL1        0.1636
     12 C         142.0481  140.7297  170.1667 C.3     1  UNL1        0.1231
     13 N         143.8804  142.7970  164.5886 N.am    1  UNL1       -0.2693
     14 C         143.1427  143.9424  163.9611 C.2     1  UNL1        0.2277
     15 C         143.8880  144.9597  163.1489 C.3     1  UNL1        0.0950
     16 O         141.6595  144.0705  164.1457 O.2     1  UNL1       -0.2747
     17 H         144.8538  142.7129  164.4674 H       1  UNL1        0.1563
     18 C         141.8266  138.0479  165.0664 C.3     1  UNL1        0.0556
     19 C         140.4135  137.6311  164.7849 C.3     1  UNL1        0.0916
     20 C         138.1304  140.3822  163.2733 C.ar    1  UNL1        0.1377
     21 O         138.9752  139.8498  164.3927 O.2     1  UNL1       -0.4430
     22 C         139.5184  138.5170  163.9700 C.ar    1  UNL1        0.2053
     23 N         139.0094  138.2257  162.5894 N.ar    1  UNL1       -0.2168
     24 C         138.1516  139.3784  162.1588 C.ar    1  UNL1        0.0923
     25 C         137.4400  139.5051  160.8445 C.3     1  UNL1        0.0551
     26 C         137.6622  142.7045  164.3399 C.3     1  UNL1        0.0085
     27 C         137.3938  141.6889  163.2691 C.3     1  UNL1        0.0658
@<TRIPOS>BOND
     1    26    27    1
     2    27    20    1
     3    20    21   ar
     4    21    22   ar
     5    22    19    1
     6    19    18    1
     7    18     1    1
     8     1     2   ar
     9     2     3   ar
    10     3     7    1
    11     7     8    1
    12     8     9    1
    13     9    10    1
    14    10    11    1
    15    11    12    1
    16     3     4   ar
    17     4     5   ar
    18     5    13    1
    19    13    14   am
    20    14    15    1
    21    14    16    2
    22     5     6   ar
    23    22    23   ar
    24    23    24   ar
    25    24    25    1
    26    24    20   ar
    27     6     1   ar
    28    12     7    1
    29    13    17    1
@<TRIPOS>MOLECULE
*****
 27 29 0 0 0
SMALL
GASTEIGER

@<TRIPOS>ATOM
      1 C         140.3314  139.1384  165.5093 C.ar    1  UNL1        0.0621
      2 C         140.0737  139.7651  166.8475 C.ar    1  UNL1        0.0294
      3 C         141.1601  140.5368  167.5359 C.ar    1  UNL1        0.0520
      4 C         142.5043  140.6819  166.8862 C.ar    1  UNL1        0.0490
      5 C         142.7620  140.0552  165.5480 C.ar    1  UNL1        0.1350
      6 N         141.6756  139.2835  164.8596 N.ar    1  UNL1       -0.2347
      7 N         140.9024  141.1636  168.8742 N.pl3   1  UNL1       -0.3027
      8 C         141.1676  140.3868  170.1297 C.3     1  UNL1        0.1231
      9 C         140.9099  141.0135  171.4679 C.3     1  UNL1        0.1636
     10 O         140.3870  142.4170  171.5507 O.3     1  UNL1       -0.3501
     11 C         140.1217  143.1937  170.2952 C.3     1  UNL1        0.1636
     12 C         140.3794  142.5670  168.9569 C.3     1  UNL1        0.1231
     13 N         144.1062  140.2003  164.8983 N.am    1  UNL1       -0.2693
     14 C         144.4755  141.4849  164.2176 C.2     1  UNL1        0.2277
     15 C         145.8197  141.6300  163.5679 C.3     1  UNL1        0.0950
     16 O         143.5006  142.6245  164.1867 O.2     1  UNL1       -0.2747
     17 H         144.7460  139.4524  164.9186 H       1  UNL1        0.1563
     18 C         139.2450  138.3666  164.8208 C.3     1  UNL1        0.0556
     19 C         138.5146  138.9731  163.6595 C.3     1  UNL1        0.0916
     20 C         138.2105  142.8406  163.7840 C.ar    1  UNL1        0.1377
     21 O         137.9659  141.4872  164.3829 O.2     1  UNL1       -0.4430
     22 C         138.5370  140.4586  163.4524 C.ar    1  UNL1        0.2053
     23 N         139.1346  141.1762  162.2785 N.ar    1  UNL1       -0.2168
     24 C         138.9327  142.6484  162.4835 C.ar    1  UNL1        0.0923
     25 C         139.3754  143.7371  161.5515 C.3     1  UNL1        0.0551
     26 C         138.6574  144.7961  165.4352 C.3     1  UNL1        0.0085
     27 C         137.8041  144.1553  164.3810 C.3     1  UNL1        0.0658
@<TRIPOS>BOND
     1    26    27    1
     2    27    20    1
     3    20    21   ar
     4    21    22   ar
     5    22    19    1
     6    19    18    1
     7    18     1    1
     8     1     2   ar
     9     2     3   ar
    10     3     7    1
    11     7     8    1
    12     8     9    1
    13     9    10    1
    14    10    11    1
    15    11    12    1
    16     3     4   ar
    17     4     5   ar
    18     5    13    1
    19    13    14   am
    20    14    15    1
    21    14    16    2
    22     5     6   ar
    23    22    23   ar
    24    23    24   ar
    25    24    25    1
    26    24    20   ar
    27     6     1   ar
    28    12     7    1
    29    13    17    1
