@<TRIPOS>MOLECULE
*****
 29 31 0 0 0
SMALL
GASTEIGER

@<TRIPOS>ATOM
      1 C         138.7858  141.3830  163.4682 C.ar    1  UNL1        0.0193
      2 C         137.9241  142.5726  163.1646 C.ar    1  UNL1        0.1002
      3 N         137.7383  143.0215  161.7455 N.ar    1  UNL1       -0.2296
      4 C         138.4142  142.2808  160.6299 C.ar    1  UNL1        0.1253
      5 N         138.2284  142.7298  159.2108 N.pl3   1  UNL1       -0.3426
      6 C         139.2759  141.0912  160.9335 C.ar    1  UNL1        0.0312
      7 C         139.4617  140.6423  162.3526 C.ar    1  UNL1        0.0043
      8 H         137.6628  143.5106  159.0116 H       1  UNL1        0.1437
      9 H         138.6720  142.2436  158.4786 H       1  UNL1        0.1437
     10 C         139.9519  140.3505  159.8179 C.ar    1  UNL1        0.0027
     11 C         139.2701  139.1800  159.1736 C.ar    1  UNL1        0.0010
     12 C         139.9460  138.4393  158.0581 C.ar    1  UNL1        0.0114
     13 C         141.3038  138.8690  157.5868 C.ar    1  UNL1        0.0577
     14 CL        141.9797  138.1283  156.4713 Cl      1  UNL1       -0.0822
     15 C         141.9855  140.0395  158.2312 C.ar    1  UNL1        0.0114
     16 C         141.3095  140.7802  159.3468 C.ar    1  UNL1        0.0010
     17 C         139.3432  140.0361  167.7256 C.ar    1  UNL1        0.1387
     18 C         140.1090  141.2165  167.2060 C.ar    1  UNL1        0.0369
     19 C         139.9232  141.6655  165.7869 C.ar    1  UNL1        0.0032
     20 C         138.9716  140.9340  164.8873 C.ar    1  UNL1        0.0017
     21 C         138.2057  139.7536  165.4069 C.ar    1  UNL1        0.0032
     22 C         138.3915  139.3047  166.8260 C.ar    1  UNL1        0.0369
     23 O         139.5290  139.5872  169.1447 O.3     1  UNL1       -0.4774
     24 C         141.5058  139.4897  169.9079 C.3     1  UNL1        0.0495
     25 C         140.3417  140.4172  170.0936 C.3     1  UNL1        0.1646
     26 C         139.1776  141.3447  170.2794 C.3     1  UNL1        0.0495
     27 C         141.1544  141.2473  171.0426 C.2     1  UNL1        0.0863
     28 O         140.4695  142.1559  172.0199 O.co2   1  UNL1       -0.5457
     29 O         142.6521  141.1687  171.0142 O.co2   1  UNL1       -0.5457
@<TRIPOS>UNITY_ATOM_ATTR
28 1
charge -1
@<TRIPOS>BOND
     1    24    25    1
     2    25    26    1
     3    25    23    1
     4    23    17    1
     5    17    18   ar
     6    18    19   ar
     7    19    20   ar
     8    20     1    1
     9     1     2   ar
    10     2     3   ar
    11     3     4   ar
    12     4     5    1
    13     4     6   ar
    14     6    10    1
    15    10    11   ar
    16    11    12   ar
    17    12    13   ar
    18    13    14    1
    19    13    15   ar
    20    15    16   ar
    21     6     7   ar
    22    20    21   ar
    23    21    22   ar
    24    25    27    1
    25    27    28   ar
    26    27    29   ar
    27    22    17   ar
    28     7     1   ar
    29    16    10   ar
    30     5     8    1
    31     5     9    1
@<TRIPOS>MOLECULE
*****
 29 31 0 0 0
SMALL
GASTEIGER

@<TRIPOS>ATOM
      1 C         138.8564  139.2200  165.9749 C.ar    1  UNL1        0.0193
      2 C         137.7484  138.5634  166.7437 C.ar    1  UNL1        0.1002
      3 N         137.6277  138.7850  168.2224 N.ar    1  UNL1       -0.2296
      4 C         138.6150  139.6633  168.9322 C.ar    1  UNL1        0.1253
      5 N         138.4942  139.8849  170.4108 N.pl3   1  UNL1       -0.3426
      6 C         139.7230  140.3199  168.1633 C.ar    1  UNL1        0.0312
      7 C         139.8437  140.0982  166.6847 C.ar    1  UNL1        0.0043
      8 H         137.7670  139.4539  170.9154 H       1  UNL1        0.1437
      9 H         139.1423  140.4614  170.8766 H       1  UNL1        0.1437
     10 C         140.7103  141.1982  168.8731 C.ar    1  UNL1        0.0027
     11 C         142.0619  140.6619  169.2417 C.ar    1  UNL1        0.0010
     12 C         143.0492  141.5401  169.9514 C.ar    1  UNL1        0.0114
     13 C         142.6851  142.9547  170.2927 C.ar    1  UNL1        0.0577
     14 CL        143.6724  143.8329  171.0025 Cl      1  UNL1       -0.0822
     15 C         141.3336  143.4910  169.9242 C.ar    1  UNL1        0.0114
     16 C         140.3462  142.6127  169.2144 C.ar    1  UNL1        0.0010
     17 C         139.2185  138.5551  161.5391 C.ar    1  UNL1        0.1387
     18 C         139.8708  137.6019  162.4961 C.ar    1  UNL1        0.0369
     19 C         139.7501  137.8235  163.9747 C.ar    1  UNL1        0.0032
     20 C         138.9771  138.9984  164.4963 C.ar    1  UNL1        0.0017
     21 C         138.3248  139.9516  163.5393 C.ar    1  UNL1        0.0032
     22 C         138.4455  139.7299  162.0607 C.ar    1  UNL1        0.0369
     23 O         139.3392  138.3335  160.0605 O.3     1  UNL1       -0.4774
     24 C         138.8544  139.7854  158.5919 C.3     1  UNL1        0.0495
     25 C         140.1254  139.2951  159.2196 C.3     1  UNL1        0.1646
     26 C         141.3964  138.8049  159.8474 C.3     1  UNL1        0.0495
     27 C         140.9117  140.2568  158.3788 C.2     1  UNL1        0.0863
     28 O         140.2021  141.3169  157.5897 O.co2   1  UNL1       -0.5457
     29 O         142.4076  140.1584  158.3271 O.co2   1  UNL1       -0.5457
@<TRIPOS>UNITY_ATOM_ATTR
28 1
charge -1
@<TRIPOS>BOND
     1    24    25    1
     2    25    26    1
     3    25    23    1
     4    23    17    1
     5    17    18   ar
     6    18    19   ar
     7    19    20   ar
     8    20     1    1
     9     1     2   ar
    10     2     3   ar
    11     3     4   ar
    12     4     5    1
    13     4     6   ar
    14     6    10    1
    15    10    11   ar
    16    11    12   ar
    17    12    13   ar
    18    13    14    1
    19    13    15   ar
    20    15    16   ar
    21     6     7   ar
    22    20    21   ar
    23    21    22   ar
    24    25    27    1
    25    27    28   ar
    26    27    29   ar
    27    22    17   ar
    28     7     1   ar
    29    16    10   ar
    30     5     8    1
    31     5     9    1
@<TRIPOS>MOLECULE
*****
 29 31 0 0 0
SMALL
GASTEIGER

@<TRIPOS>ATOM
      1 C         139.1528  141.6526  163.4405 C.ar    1  UNL1        0.0193
      2 C         137.8637  142.2791  162.9983 C.ar    1  UNL1        0.1002
      3 N         137.7291  142.8128  161.6029 N.ar    1  UNL1       -0.2296
      4 C         138.8836  142.7201  160.6498 C.ar    1  UNL1        0.1253
      5 N         138.7490  143.2539  159.2545 N.pl3   1  UNL1       -0.3426
      6 C         140.1727  142.0936  161.0920 C.ar    1  UNL1        0.0312
      7 C         140.3073  141.5599  162.4874 C.ar    1  UNL1        0.0043
      8 H         137.9028  143.6651  158.9642 H       1  UNL1        0.1437
      9 H         139.5067  143.1930  158.6289 H       1  UNL1        0.1437
     10 C         141.3273  142.0009  160.1389 C.ar    1  UNL1        0.0027
     11 C         141.4881  140.7878  159.2713 C.ar    1  UNL1        0.0010
     12 C         142.6426  140.6950  158.3183 C.ar    1  UNL1        0.0114
     13 C         143.6364  141.8154  158.2327 C.ar    1  UNL1        0.0577
     14 CL        144.7909  141.7226  157.2796 Cl      1  UNL1       -0.0822
     15 C         143.4757  143.0284  159.1002 C.ar    1  UNL1        0.0114
     16 C         142.3211  143.1212  160.0534 C.ar    1  UNL1        0.0010
     17 C         139.5567  140.0513  167.6265 C.ar    1  UNL1        0.1387
     18 C         140.4224  141.1887  167.1718 C.ar    1  UNL1        0.0369
     19 C         140.2878  141.7225  165.7765 C.ar    1  UNL1        0.0032
     20 C         139.2874  141.1188  164.8358 C.ar    1  UNL1        0.0017
     21 C         138.4218  139.9814  165.2905 C.ar    1  UNL1        0.0032
     22 C         138.5564  139.4476  166.6858 C.ar    1  UNL1        0.0369
     23 O         139.6913  139.5175  169.0218 O.3     1  UNL1       -0.4774
     24 C         138.9354  141.1140  170.1964 C.3     1  UNL1        0.0495
     25 C         140.2462  140.3901  170.1084 C.3     1  UNL1        0.1646
     26 C         141.5570  139.6662  170.0203 C.3     1  UNL1        0.0495
     27 C         140.8011  141.2628  171.1950 C.2     1  UNL1        0.0863
     28 O         142.1191  140.9264  171.8273 O.co2   1  UNL1       -0.5457
     29 O         140.0381  142.4717  171.6491 O.co2   1  UNL1       -0.5457
@<TRIPOS>UNITY_ATOM_ATTR
28 1
charge -1
@<TRIPOS>BOND
     1    24    25    1
     2    25    26    1
     3    25    23    1
     4    23    17    1
     5    17    18   ar
     6    18    19   ar
     7    19    20   ar
     8    20     1    1
     9     1     2   ar
    10     2     3   ar
    11     3     4   ar
    12     4     5    1
    13     4     6   ar
    14     6    10    1
    15    10    11   ar
    16    11    12   ar
    17    12    13   ar
    18    13    14    1
    19    13    15   ar
    20    15    16   ar
    21     6     7   ar
    22    20    21   ar
    23    21    22   ar
    24    25    27    1
    25    27    28   ar
    26    27    29   ar
    27    22    17   ar
    28     7     1   ar
    29    16    10   ar
    30     5     8    1
    31     5     9    1
@<TRIPOS>MOLECULE
*****
 29 31 0 0 0
SMALL
GASTEIGER

@<TRIPOS>ATOM
      1 C         141.1059  143.7444  163.5761 C.ar    1  UNL1        0.0193
      2 C         141.0601  145.2332  163.3997 C.ar    1  UNL1        0.1002
      3 N         140.6594  145.8201  162.0787 N.ar    1  UNL1       -0.2296
      4 C         140.3044  144.9180  160.9341 C.ar    1  UNL1        0.1253
      5 N         139.9037  145.5049  159.6131 N.pl3   1  UNL1       -0.3426
      6 C         140.3502  143.4292  161.1104 C.ar    1  UNL1        0.0312
      7 C         140.7509  142.8423  162.4314 C.ar    1  UNL1        0.0043
      8 H         139.8737  146.4821  159.4973 H       1  UNL1        0.1437
      9 H         139.6707  144.9128  158.8618 H       1  UNL1        0.1437
     10 C         139.9952  142.5271  159.9657 C.ar    1  UNL1        0.0027
     11 C         138.5747  142.0867  159.7705 C.ar    1  UNL1        0.0010
     12 C         138.2197  141.1847  158.6258 C.ar    1  UNL1        0.0114
     13 C         139.2853  140.7229  157.6764 C.ar    1  UNL1        0.0577
     14 CL        138.9303  139.8208  156.5318 Cl      1  UNL1       -0.0822
     15 C         140.7058  141.1632  157.8716 C.ar    1  UNL1        0.0114
     16 C         141.0608  142.0653  159.0163 C.ar    1  UNL1        0.0010
     17 C         142.3081  141.9839  167.5391 C.ar    1  UNL1        0.1387
     18 C         140.8617  142.2508  167.2448 C.ar    1  UNL1        0.0369
     19 C         140.4610  142.8377  165.9238 C.ar    1  UNL1        0.0032
     20 C         141.5066  143.1575  164.8971 C.ar    1  UNL1        0.0017
     21 C         142.9530  142.8906  165.1913 C.ar    1  UNL1        0.0032
     22 C         143.3537  142.3037  166.5123 C.ar    1  UNL1        0.0369
     23 O         142.7088  141.3970  168.8601 O.3     1  UNL1       -0.4774
     24 C         141.3829  139.8405  169.4249 C.3     1  UNL1        0.0495
     25 C         141.6855  141.2158  169.9416 C.3     1  UNL1        0.1646
     26 C         141.9880  142.5910  170.4584 C.3     1  UNL1        0.0495
     27 C         140.6620  141.0346  171.0233 C.2     1  UNL1        0.0863
     28 O         139.7991  139.8078  171.0414 O.co2   1  UNL1       -0.5457
     29 O         140.5016  142.0802  172.0867 O.co2   1  UNL1       -0.5457
@<TRIPOS>UNITY_ATOM_ATTR
28 1
charge -1
@<TRIPOS>BOND
     1    24    25    1
     2    25    26    1
     3    25    23    1
     4    23    17    1
     5    17    18   ar
     6    18    19   ar
     7    19    20   ar
     8    20     1    1
     9     1     2   ar
    10     2     3   ar
    11     3     4   ar
    12     4     5    1
    13     4     6   ar
    14     6    10    1
    15    10    11   ar
    16    11    12   ar
    17    12    13   ar
    18    13    14    1
    19    13    15   ar
    20    15    16   ar
    21     6     7   ar
    22    20    21   ar
    23    21    22   ar
    24    25    27    1
    25    27    28   ar
    26    27    29   ar
    27    22    17   ar
    28     7     1   ar
    29    16    10   ar
    30     5     8    1
    31     5     9    1
@<TRIPOS>MOLECULE
*****
 29 31 0 0 0
SMALL
GASTEIGER

@<TRIPOS>ATOM
      1 C         138.9319  139.8617  163.3588 C.ar    1  UNL1        0.0193
      2 C         138.0572  138.8406  162.6938 C.ar    1  UNL1        0.1002
      3 N         137.8771  138.8629  161.2048 N.ar    1  UNL1       -0.2296
      4 C         138.5717  139.9062  160.3808 C.ar    1  UNL1        0.1253
      5 N         138.3916  139.9284  158.8918 N.pl3   1  UNL1       -0.3426
      6 C         139.4464  140.9273  161.0458 C.ar    1  UNL1        0.0312
      7 C         139.6265  140.9050  162.5348 C.ar    1  UNL1        0.0043
      8 H         137.8175  139.2583  158.4554 H       1  UNL1        0.1437
      9 H         138.8475  140.6132  158.3510 H       1  UNL1        0.1437
     10 C         140.1410  141.9707  160.2219 C.ar    1  UNL1        0.0027
     11 C         141.4800  141.6766  159.6130 C.ar    1  UNL1        0.0010
     12 C         142.1746  142.7200  158.7891 C.ar    1  UNL1        0.0114
     13 C         141.5303  144.0574  158.5740 C.ar    1  UNL1        0.0577
     14 CL        142.2250  145.1007  157.7500 Cl      1  UNL1       -0.0822
     15 C         140.1913  144.3514  159.1828 C.ar    1  UNL1        0.0114
     16 C         139.4967  143.3080  160.0068 C.ar    1  UNL1        0.0010
     17 C         139.4721  139.7949  167.8257 C.ar    1  UNL1        0.1387
     18 C         138.3068  139.0871  167.2005 C.ar    1  UNL1        0.0369
     19 C         138.1267  139.1093  165.7116 C.ar    1  UNL1        0.0032
     20 C         139.1120  139.8394  164.8478 C.ar    1  UNL1        0.0017
     21 C         140.2773  140.5473  165.4729 C.ar    1  UNL1        0.0032
     22 C         140.4574  140.5250  166.9619 C.ar    1  UNL1        0.0369
     23 O         139.6522  139.7726  169.3147 O.3     1  UNL1       -0.4774
     24 C         139.7615  141.7746  170.0075 C.3     1  UNL1        0.0495
     25 C         140.7140  140.6172  169.9545 C.3     1  UNL1        0.1646
     26 C         141.6666  139.4597  169.9015 C.3     1  UNL1        0.0495
     27 C         141.7759  141.4617  170.5943 C.2     1  UNL1        0.0863
     28 O         143.1367  141.5554  169.9703 O.co2   1  UNL1       -0.5457
     29 O         141.4769  142.2124  171.8580 O.co2   1  UNL1       -0.5457
@<TRIPOS>UNITY_ATOM_ATTR
28 1
charge -1
@<TRIPOS>BOND
     1    24    25    1
     2    25    26    1
     3    25    23    1
     4    23    17    1
     5    17    18   ar
     6    18    19   ar
     7    19    20   ar
     8    20     1    1
     9     1     2   ar
    10     2     3   ar
    11     3     4   ar
    12     4     5    1
    13     4     6   ar
    14     6    10    1
    15    10    11   ar
    16    11    12   ar
    17    12    13   ar
    18    13    14    1
    19    13    15   ar
    20    15    16   ar
    21     6     7   ar
    22    20    21   ar
    23    21    22   ar
    24    25    27    1
    25    27    28   ar
    26    27    29   ar
    27    22    17   ar
    28     7     1   ar
    29    16    10   ar
    30     5     8    1
    31     5     9    1
@<TRIPOS>MOLECULE
*****
 29 31 0 0 0
SMALL
GASTEIGER

@<TRIPOS>ATOM
      1 C         141.7607  139.0646  163.6789 C.ar    1  UNL1        0.0193
      2 C         141.4451  137.7275  163.0769 C.ar    1  UNL1        0.1002
      3 N         141.2819  137.5932  161.5918 N.ar    1  UNL1       -0.2296
      4 C         141.4343  138.7961  160.7088 C.ar    1  UNL1        0.1253
      5 N         141.2711  138.6619  159.2237 N.pl3   1  UNL1       -0.3426
      6 C         141.7499  140.1332  161.3108 C.ar    1  UNL1        0.0312
      7 C         141.9131  140.2675  162.7958 C.ar    1  UNL1        0.0043
      8 H         141.0640  137.7842  158.8286 H       1  UNL1        0.1437
      9 H         141.3712  139.4514  158.6442 H       1  UNL1        0.1437
     10 C         141.9024  141.3362  160.4277 C.ar    1  UNL1        0.0027
     11 C         140.7063  142.1772  160.0930 C.ar    1  UNL1        0.0010
     12 C         140.8587  143.3801  159.2100 C.ar    1  UNL1        0.0114
     13 C         142.2072  143.7421  158.6617 C.ar    1  UNL1        0.0577
     14 CL        142.3596  144.9450  157.7787 Cl      1  UNL1       -0.0822
     15 C         143.4033  142.9010  158.9964 C.ar    1  UNL1        0.0114
     16 C         143.2509  141.6981  159.8795 C.ar    1  UNL1        0.0010
     17 C         142.2502  139.4673  168.1340 C.ar    1  UNL1        0.1387
     18 C         143.2618  138.7007  167.3346 C.ar    1  UNL1        0.0369
     19 C         143.0986  138.5665  165.8495 C.ar    1  UNL1        0.0032
     20 C         141.9239  139.1988  165.1639 C.ar    1  UNL1        0.0017
     21 C         140.9123  139.9654  165.9633 C.ar    1  UNL1        0.0032
     22 C         141.0755  140.0997  167.4484 C.ar    1  UNL1        0.0369
     23 O         142.4134  139.6016  169.6190 O.3     1  UNL1       -0.4774
     24 C         140.7807  140.2633  170.8006 C.3     1  UNL1        0.0495
     25 C         142.0496  140.8874  170.3003 C.3     1  UNL1        0.1646
     26 C         143.3185  141.5115  169.8001 C.3     1  UNL1        0.0495
     27 C         141.6858  142.1733  170.9816 C.2     1  UNL1        0.0863
     28 O         142.4823  143.4158  170.7132 O.co2   1  UNL1       -0.5457
     29 O         140.5256  142.2168  171.9313 O.co2   1  UNL1       -0.5457
@<TRIPOS>UNITY_ATOM_ATTR
28 1
charge -1
@<TRIPOS>BOND
     1    24    25    1
     2    25    26    1
     3    25    23    1
     4    23    17    1
     5    17    18   ar
     6    18    19   ar
     7    19    20   ar
     8    20     1    1
     9     1     2   ar
    10     2     3   ar
    11     3     4   ar
    12     4     5    1
    13     4     6   ar
    14     6    10    1
    15    10    11   ar
    16    11    12   ar
    17    12    13   ar
    18    13    14    1
    19    13    15   ar
    20    15    16   ar
    21     6     7   ar
    22    20    21   ar
    23    21    22   ar
    24    25    27    1
    25    27    28   ar
    26    27    29   ar
    27    22    17   ar
    28     7     1   ar
    29    16    10   ar
    30     5     8    1
    31     5     9    1
@<TRIPOS>MOLECULE
*****
 29 31 0 0 0
SMALL
GASTEIGER

@<TRIPOS>ATOM
      1 C         140.8789  143.9207  163.0462 C.ar    1  UNL1        0.0193
      2 C         140.0166  145.1436  162.9424 C.ar    1  UNL1        0.1002
      3 N         139.6891  145.7184  161.5962 N.ar    1  UNL1       -0.2296
      4 C         140.2239  145.0702  160.3537 C.ar    1  UNL1        0.1253
      5 N         139.8964  145.6450  159.0075 N.pl3   1  UNL1       -0.3426
      6 C         141.0862  143.8473  160.4575 C.ar    1  UNL1        0.0312
      7 C         141.4137  143.2725  161.8037 C.ar    1  UNL1        0.0043
      8 H         139.3304  146.4477  158.9394 H       1  UNL1        0.1437
      9 H         140.2475  145.2196  158.1920 H       1  UNL1        0.1437
     10 C         141.6211  143.1991  159.2150 C.ar    1  UNL1        0.0027
     11 C         142.9549  143.6131  158.6677 C.ar    1  UNL1        0.0010
     12 C         143.4898  142.9650  157.4253 C.ar    1  UNL1        0.0114
     13 C         142.6908  141.9027  156.7300 C.ar    1  UNL1        0.0577
     14 CL        143.2257  141.2545  155.4876 Cl      1  UNL1       -0.0822
     15 C         141.3570  141.4886  157.2773 C.ar    1  UNL1        0.0114
     16 C         140.8222  142.1369  158.5198 C.ar    1  UNL1        0.0010
     17 C         141.8613  142.1964  167.0850 C.ar    1  UNL1        0.1387
     18 C         140.4413  142.5331  166.7385 C.ar    1  UNL1        0.0369
     19 C         140.1138  143.1078  165.3922 C.ar    1  UNL1        0.0032
     20 C         141.2063  143.3459  164.3925 C.ar    1  UNL1        0.0017
     21 C         142.6264  143.0093  164.7390 C.ar    1  UNL1        0.0032
     22 C         142.9539  142.4345  166.0852 C.ar    1  UNL1        0.0369
     23 O         142.1888  141.6216  168.4312 O.3     1  UNL1       -0.4774
     24 C         141.6105  143.0844  169.8545 C.3     1  UNL1        0.0495
     25 C         141.1790  141.6830  169.5387 C.3     1  UNL1        0.1646
     26 C         140.7475  140.2816  169.2229 C.3     1  UNL1        0.0495
     27 C         140.1692  141.7442  170.6462 C.2     1  UNL1        0.0863
     28 O         140.5718  142.2455  172.0014 O.co2   1  UNL1       -0.5457
     29 O         138.7567  141.3043  170.3985 O.co2   1  UNL1       -0.5457
@<TRIPOS>UNITY_ATOM_ATTR
28 1
charge -1
@<TRIPOS>BOND
     1    24    25    1
     2    25    26    1
     3    25    23    1
     4    23    17    1
     5    17    18   ar
     6    18    19   ar
     7    19    20   ar
     8    20     1    1
     9     1     2   ar
    10     2     3   ar
    11     3     4   ar
    12     4     5    1
    13     4     6   ar
    14     6    10    1
    15    10    11   ar
    16    11    12   ar
    17    12    13   ar
    18    13    14    1
    19    13    15   ar
    20    15    16   ar
    21     6     7   ar
    22    20    21   ar
    23    21    22   ar
    24    25    27    1
    25    27    28   ar
    26    27    29   ar
    27    22    17   ar
    28     7     1   ar
    29    16    10   ar
    30     5     8    1
    31     5     9    1
@<TRIPOS>MOLECULE
*****
 29 31 0 0 0
SMALL
GASTEIGER

@<TRIPOS>ATOM
      1 C         139.2550  141.0845  164.3783 C.ar    1  UNL1        0.0193
      2 C         138.3290  139.9578  164.7289 C.ar    1  UNL1        0.1002
      3 N         138.2612  139.4542  166.1402 N.ar    1  UNL1       -0.2296
      4 C         139.1195  140.0773  167.2009 C.ar    1  UNL1        0.1253
      5 N         139.0517  139.5737  168.6122 N.pl3   1  UNL1       -0.3426
      6 C         140.0455  141.2040  166.8503 C.ar    1  UNL1        0.0312
      7 C         140.1133  141.7076  165.4390 C.ar    1  UNL1        0.0043
      8 H         138.4439  138.8342  168.8423 H       1  UNL1        0.1437
      9 H         139.6150  139.9827  169.3084 H       1  UNL1        0.1437
     10 C         140.9038  141.8272  167.9110 C.ar    1  UNL1        0.0027
     11 C         142.3295  141.3907  168.0743 C.ar    1  UNL1        0.0010
     12 C         143.1878  142.0138  169.1350 C.ar    1  UNL1        0.0114
     13 C         142.6204  143.0735  170.0324 C.ar    1  UNL1        0.0577
     14 CL        143.4786  143.6966  171.0930 Cl      1  UNL1       -0.0822
     15 C         141.1946  143.5099  169.8690 C.ar    1  UNL1        0.0114
     16 C         140.3363  142.8867  168.8083 C.ar    1  UNL1        0.0010
     17 C         139.4584  142.5952  160.1443 C.ar    1  UNL1        0.1387
     18 C         140.6786  142.0101  160.7913 C.ar    1  UNL1        0.0369
     19 C         140.6108  141.5065  162.2026 C.ar    1  UNL1        0.0032
     20 C         139.3228  141.5880  162.9670 C.ar    1  UNL1        0.0017
     21 C         138.1026  142.1731  162.3200 C.ar    1  UNL1        0.0032
     22 C         138.1704  142.6767  160.9087 C.ar    1  UNL1        0.0369
     23 O         139.5262  143.0988  158.7330 O.3     1  UNL1       -0.4774
     24 C         141.1230  142.6371  157.4152 C.3     1  UNL1        0.0495
     25 C         140.7487  143.8235  158.2532 C.3     1  UNL1        0.1646
     26 C         140.3744  145.0098  159.0912 C.3     1  UNL1        0.0495
     27 C         141.9713  144.5482  157.7733 C.2     1  UNL1        0.0863
     28 O         142.2648  145.9333  158.2686 O.co2   1  UNL1       -0.5457
     29 O         142.9002  143.8878  156.7983 O.co2   1  UNL1       -0.5457
@<TRIPOS>UNITY_ATOM_ATTR
28 1
charge -1
@<TRIPOS>BOND
     1    24    25    1
     2    25    26    1
     3    25    23    1
     4    23    17    1
     5    17    18   ar
     6    18    19   ar
     7    19    20   ar
     8    20     1    1
     9     1     2   ar
    10     2     3   ar
    11     3     4   ar
    12     4     5    1
    13     4     6   ar
    14     6    10    1
    15    10    11   ar
    16    11    12   ar
    17    12    13   ar
    18    13    14    1
    19    13    15   ar
    20    15    16   ar
    21     6     7   ar
    22    20    21   ar
    23    21    22   ar
    24    25    27    1
    25    27    28   ar
    26    27    29   ar
    27    22    17   ar
    28     7     1   ar
    29    16    10   ar
    30     5     8    1
    31     5     9    1
@<TRIPOS>MOLECULE
*****
 29 31 0 0 0
SMALL
GASTEIGER

@<TRIPOS>ATOM
      1 C         143.1180  140.0663  163.5778 C.ar    1  UNL1        0.0193
      2 C         143.3261  138.5976  163.3555 C.ar    1  UNL1        0.1002
      3 N         143.4082  138.0546  161.9596 N.ar    1  UNL1       -0.2296
      4 C         143.2822  138.9804  160.7861 C.ar    1  UNL1        0.1253
      5 N         143.3643  138.4374  159.3903 N.pl3   1  UNL1       -0.3426
      6 C         143.0741  140.4491  161.0085 C.ar    1  UNL1        0.0312
      7 C         142.9920  140.9921  162.4044 C.ar    1  UNL1        0.0043
      8 H         143.5009  137.4734  159.2443 H       1  UNL1        0.1437
      9 H         143.2816  139.0450  158.6201 H       1  UNL1        0.1437
     10 C         142.9482  141.3749  159.8350 C.ar    1  UNL1        0.0027
     11 C         141.5984  141.6598  159.2460 C.ar    1  UNL1        0.0010
     12 C         141.4724  142.5855  158.0725 C.ar    1  UNL1        0.0114
     13 C         142.6962  143.2265  157.4881 C.ar    1  UNL1        0.0577
     14 CL        142.5701  144.1523  156.3146 Cl      1  UNL1       -0.0822
     15 C         144.0459  142.9417  158.0771 C.ar    1  UNL1        0.0114
     16 C         144.1719  142.0158  159.2506 C.ar    1  UNL1        0.0010
     17 C         142.8717  141.6953  167.7654 C.ar    1  UNL1        0.1387
     18 C         142.4757  140.2753  167.4886 C.ar    1  UNL1        0.0369
     19 C         142.5578  139.7323  166.0927 C.ar    1  UNL1        0.0032
     20 C         143.0359  140.6093  164.9737 C.ar    1  UNL1        0.0017
     21 C         143.4319  142.0293  165.2506 C.ar    1  UNL1        0.0032
     22 C         143.3498  142.5723  166.6464 C.ar    1  UNL1        0.0369
     23 O         142.7896  142.2383  169.1613 O.3     1  UNL1       -0.4774
     24 C         140.8427  143.0804  169.1729 C.3     1  UNL1        0.0495
     25 C         141.5478  142.0280  169.9760 C.3     1  UNL1        0.1646
     26 C         142.2530  140.9755  170.7791 C.3     1  UNL1        0.0495
     27 C         140.3060  141.8176  170.7908 C.2     1  UNL1        0.0863
     28 O         139.8484  140.4264  171.1149 O.co2   1  UNL1       -0.5457
     29 O         139.5219  142.9985  171.2814 O.co2   1  UNL1       -0.5457
@<TRIPOS>UNITY_ATOM_ATTR
28 1
charge -1
@<TRIPOS>BOND
     1    24    25    1
     2    25    26    1
     3    25    23    1
     4    23    17    1
     5    17    18   ar
     6    18    19   ar
     7    19    20   ar
     8    20     1    1
     9     1     2   ar
    10     2     3   ar
    11     3     4   ar
    12     4     5    1
    13     4     6   ar
    14     6    10    1
    15    10    11   ar
    16    11    12   ar
    17    12    13   ar
    18    13    14    1
    19    13    15   ar
    20    15    16   ar
    21     6     7   ar
    22    20    21   ar
    23    21    22   ar
    24    25    27    1
    25    27    28   ar
    26    27    29   ar
    27    22    17   ar
    28     7     1   ar
    29    16    10   ar
    30     5     8    1
    31     5     9    1
