@<TRIPOS>MOLECULE
*****
 33 36 0 0 0
SMALL
GASTEIGER

@<TRIPOS>ATOM
      1 C         141.2761  144.8731  159.5895 C.ar    1  UNL1        0.1389
      2 C         142.5186  144.0499  159.7579 C.ar    1  UNL1        0.0366
      3 C         142.7956  143.3688  161.0653 C.ar    1  UNL1        0.0011
      4 C         141.8300  143.5109  162.2043 C.ar    1  UNL1        0.0091
      5 C         140.5875  144.3341  162.0359 C.ar    1  UNL1        0.0547
      6 C         140.3105  145.0152  160.7285 C.ar    1  UNL1        0.0412
      7 C         139.8253  144.2925  163.3273 C.2     1  UNL1        0.2497
      8 O         138.5207  144.9792  163.6036 O.2     1  UNL1       -0.2699
      9 N         140.5968  143.4436  164.2937 N.am    1  UNL1       -0.2619
     10 C         141.8358  142.9606  163.5997 C.3     1  UNL1        0.1753
     11 C         142.8947  142.0815  164.1963 C.2     1  UNL1        0.2448
     12 O         143.9432  142.6723  165.0917 O.2     1  UNL1       -0.2729
     13 N         142.9053  140.6116  163.8976 N.am    1  UNL1       -0.3059
     14 H         142.2172  140.2238  163.3099 H       1  UNL1        0.1494
     15 C         143.9642  139.7326  164.4942 C.3     1  UNL1        0.0569
     16 C         143.0054  139.3046  165.5654 C.3     1  UNL1        0.0196
     17 C         144.9230  140.1605  163.4230 C.3     1  UNL1        0.0196
     18 C         145.0231  138.8535  165.0909 C.3     1  UNL1        0.0196
     19 C         142.1262  145.8531  157.3385 C.3     1  UNL1        0.2525
     20 O         140.9991  145.5542  158.2820 O.3     1  UNL1       -0.4714
     21 C         140.1993  143.1324  165.7062 C.3     1  UNL1        0.1212
     22 C         139.6363  141.7845  166.0473 C.ar    1  UNL1       -0.0023
     23 C         138.7199  141.0891  165.0846 C.ar    1  UNL1       -0.0026
     24 C         138.1569  139.7412  165.4256 C.ar    1  UNL1       -0.0003
     25 C         138.5104  139.0887  166.7293 C.ar    1  UNL1       -0.0000
     26 C         139.4268  139.7842  167.6918 C.ar    1  UNL1       -0.0003
     27 C         139.9897  141.1321  167.3508 C.ar    1  UNL1       -0.0024
     28 C         140.9061  141.8275  168.3134 C.ar    1  UNL1       -0.0003
     29 C         140.3613  142.8614  169.2539 C.ar    1  UNL1       -0.0000
     30 C         141.2776  143.5568  170.2164 C.ar    1  UNL1       -0.0000
     31 C         142.7388  143.2184  170.2386 C.ar    1  UNL1       -0.0000
     32 C         143.2836  142.1846  169.2983 C.ar    1  UNL1       -0.0000
     33 C         142.3672  141.4891  168.3356 C.ar    1  UNL1       -0.0000
@<TRIPOS>BOND
     1    19    20    1
     2    20     1    1
     3     1     2   ar
     4     2     3   ar
     5     3     4   ar
     6     4     5   ar
     7     5     6   ar
     8     5     7    1
     9     7     8    2
    10     7     9   am
    11     9    21    1
    12    21    22    1
    13    22    23   ar
    14    23    24   ar
    15    24    25   ar
    16    25    26   ar
    17    26    27   ar
    18    27    28    1
    19    28    29   ar
    20    29    30   ar
    21    30    31   ar
    22    31    32   ar
    23    32    33   ar
    24     9    10    1
    25    10    11    1
    26    11    12    2
    27    11    13   am
    28    13    15    1
    29    15    16    1
    30    15    17    1
    31    15    18    1
    32     6     1   ar
    33    27    22   ar
    34    33    28   ar
    35    10     4    1
    36    13    14    1
@<TRIPOS>MOLECULE
*****
 33 36 0 0 0
SMALL
GASTEIGER

@<TRIPOS>ATOM
      1 C         142.8654  140.6851  168.5647 C.ar    1  UNL1        0.1389
      2 C         142.7739  142.1031  168.0841 C.ar    1  UNL1        0.0366
      3 C         142.4750  142.3884  166.6422 C.ar    1  UNL1        0.0011
      4 C         142.2676  141.2559  165.6808 C.ar    1  UNL1        0.0091
      5 C         142.3590  139.8379  166.1615 C.ar    1  UNL1        0.0547
      6 C         142.6580  139.5526  167.6034 C.ar    1  UNL1        0.0412
      7 C         142.1093  138.9345  164.9903 C.2     1  UNL1        0.2497
      8 O         142.1060  137.4347  165.0187 O.2     1  UNL1       -0.2699
      9 N         141.8634  139.7941  163.7859 N.am    1  UNL1       -0.2619
     10 C         141.9613  141.2288  164.2127 C.3     1  UNL1        0.1753
     11 C         141.7839  142.4262  163.3269 C.2     1  UNL1        0.2448
     12 O         142.6882  142.6269  162.1471 O.2     1  UNL1       -0.2729
     13 N         140.7023  143.4230  163.6208 N.am    1  UNL1       -0.3059
     14 H         140.1087  143.2913  164.3952 H       1  UNL1        0.1494
     15 C         140.5249  144.6204  162.7350 C.3     1  UNL1        0.0569
     16 C         139.4793  143.8851  161.9503 C.3     1  UNL1        0.0196
     17 C         141.5706  145.3558  163.5197 C.3     1  UNL1        0.0196
     18 C         140.3475  145.8179  161.8491 C.3     1  UNL1        0.0196
     19 C         142.1397  140.7031  171.0593 C.3     1  UNL1        0.2525
     20 O         143.1643  140.3998  170.0067 O.3     1  UNL1       -0.4714
     21 C         141.5711  139.3050  162.3983 C.3     1  UNL1        0.1212
     22 C         140.4316  139.8933  161.6203 C.ar    1  UNL1       -0.0023
     23 C         140.6722  140.4654  160.2546 C.ar    1  UNL1       -0.0026
     24 C         139.5327  141.0538  159.4766 C.ar    1  UNL1       -0.0003
     25 C         138.1526  141.0700  160.0641 C.ar    1  UNL1       -0.0000
     26 C         137.9121  140.4978  161.4297 C.ar    1  UNL1       -0.0003
     27 C         139.0516  139.9095  162.2077 C.ar    1  UNL1       -0.0024
     28 C         138.8110  139.3374  163.5733 C.ar    1  UNL1       -0.0003
     29 C         138.8521  137.8525  163.7823 C.ar    1  UNL1       -0.0000
     30 C         138.6115  137.2804  165.1478 C.ar    1  UNL1       -0.0000
     31 C         138.3300  138.1930  166.3045 C.ar    1  UNL1       -0.0000
     32 C         138.2889  139.6778  166.0955 C.ar    1  UNL1       -0.0000
     33 C         138.5294  140.2500  164.7299 C.ar    1  UNL1       -0.0000
@<TRIPOS>BOND
     1    19    20    1
     2    20     1    1
     3     1     2   ar
     4     2     3   ar
     5     3     4   ar
     6     4     5   ar
     7     5     6   ar
     8     5     7    1
     9     7     8    2
    10     7     9   am
    11     9    21    1
    12    21    22    1
    13    22    23   ar
    14    23    24   ar
    15    24    25   ar
    16    25    26   ar
    17    26    27   ar
    18    27    28    1
    19    28    29   ar
    20    29    30   ar
    21    30    31   ar
    22    31    32   ar
    23    32    33   ar
    24     9    10    1
    25    10    11    1
    26    11    12    2
    27    11    13   am
    28    13    15    1
    29    15    16    1
    30    15    17    1
    31    15    18    1
    32     6     1   ar
    33    27    22   ar
    34    33    28   ar
    35    10     4    1
    36    13    14    1
@<TRIPOS>MOLECULE
*****
 33 36 0 0 0
SMALL
GASTEIGER

@<TRIPOS>ATOM
      1 C         140.2259  143.4185  158.9153 C.ar    1  UNL1        0.1389
      2 C         139.2498  142.3683  159.3559 C.ar    1  UNL1        0.0366
      3 C         139.6403  141.3773  160.4120 C.ar    1  UNL1        0.0011
      4 C         141.0069  141.4364  161.0274 C.ar    1  UNL1        0.0091
      5 C         141.9830  142.4866  160.5867 C.ar    1  UNL1        0.0547
      6 C         141.5925  143.4777  159.5307 C.ar    1  UNL1        0.0412
      7 C         143.2496  142.2994  161.3683 C.2     1  UNL1        0.2497
      8 O         144.4914  143.1319  161.2474 O.2     1  UNL1       -0.2699
      9 N         143.0562  141.1335  162.2920 N.am    1  UNL1       -0.2619
     10 C         141.6701  140.6001  162.0813 C.3     1  UNL1        0.1753
     11 C         141.0552  139.4350  162.7986 C.2     1  UNL1        0.2448
     12 O         141.6554  138.0674  162.6601 O.2     1  UNL1       -0.2729
     13 N         139.8401  139.6376  163.6544 N.am    1  UNL1       -0.3059
     14 H         139.4462  140.5353  163.7454 H       1  UNL1        0.1494
     15 C         139.2252  138.4726  164.3717 C.3     1  UNL1        0.0569
     16 C         138.5581  138.0413  163.0993 C.3     1  UNL1        0.0196
     17 C         139.8924  138.9038  165.6441 C.3     1  UNL1        0.0196
     18 C         138.6103  137.3074  165.0889 C.3     1  UNL1        0.0196
     19 C         140.4211  145.7904  157.8732 C.3     1  UNL1        0.2525
     20 O         139.8354  144.4096  157.8592 O.3     1  UNL1       -0.4714
     21 C         144.0707  140.5954  163.2571 C.3     1  UNL1        0.1212
     22 C         143.6730  140.2906  164.6709 C.ar    1  UNL1       -0.0023
     23 C         143.9038  138.9204  165.2362 C.ar    1  UNL1       -0.0026
     24 C         143.5062  138.6156  166.6500 C.ar    1  UNL1       -0.0003
     25 C         142.8777  139.6810  167.4986 C.ar    1  UNL1       -0.0000
     26 C         142.6469  141.0511  166.9334 C.ar    1  UNL1       -0.0003
     27 C         143.0446  141.3559  165.5195 C.ar    1  UNL1       -0.0024
     28 C         142.8138  142.7260  164.9543 C.ar    1  UNL1       -0.0003
     29 C         143.9699  143.6619  164.7604 C.ar    1  UNL1       -0.0000
     30 C         143.7391  145.0319  164.1951 C.ar    1  UNL1       -0.0000
     31 C         142.3522  145.4662  163.8237 C.ar    1  UNL1       -0.0000
     32 C         141.1961  144.5304  164.0176 C.ar    1  UNL1       -0.0000
     33 C         141.4269  143.1602  164.5829 C.ar    1  UNL1       -0.0000
@<TRIPOS>BOND
     1    19    20    1
     2    20     1    1
     3     1     2   ar
     4     2     3   ar
     5     3     4   ar
     6     4     5   ar
     7     5     6   ar
     8     5     7    1
     9     7     8    2
    10     7     9   am
    11     9    21    1
    12    21    22    1
    13    22    23   ar
    14    23    24   ar
    15    24    25   ar
    16    25    26   ar
    17    26    27   ar
    18    27    28    1
    19    28    29   ar
    20    29    30   ar
    21    30    31   ar
    22    31    32   ar
    23    32    33   ar
    24     9    10    1
    25    10    11    1
    26    11    12    2
    27    11    13   am
    28    13    15    1
    29    15    16    1
    30    15    17    1
    31    15    18    1
    32     6     1   ar
    33    27    22   ar
    34    33    28   ar
    35    10     4    1
    36    13    14    1
@<TRIPOS>MOLECULE
*****
 33 36 0 0 0
SMALL
GASTEIGER

@<TRIPOS>ATOM
      1 C         140.3893  141.4296  168.6142 C.ar    1  UNL1        0.1389
      2 C         140.6160  142.7335  167.9083 C.ar    1  UNL1        0.0366
      3 C         140.1949  142.8950  166.4778 C.ar    1  UNL1        0.0011
      4 C         139.5471  141.7527  165.7530 C.ar    1  UNL1        0.0091
      5 C         139.3204  140.4487  166.4589 C.ar    1  UNL1        0.0547
      6 C         139.7415  140.2872  167.8895 C.ar    1  UNL1        0.0412
      7 C         138.6634  139.5071  165.4936 C.2     1  UNL1        0.2497
      8 O         138.2571  138.0920  165.7804 O.2     1  UNL1       -0.2699
      9 N         138.4840  140.2292  164.1911 N.am    1  UNL1       -0.2619
     10 C         139.0302  141.6170  164.3515 C.3     1  UNL1        0.1753
     11 C         139.0551  142.6821  163.2956 C.2     1  UNL1        0.2448
     12 O         137.7724  143.1621  162.6840 O.2     1  UNL1       -0.2729
     13 N         140.3628  143.2674  162.8514 N.am    1  UNL1       -0.3059
     14 H         141.2048  142.9525  163.2529 H       1  UNL1        0.1494
     15 C         140.3877  144.3326  161.7956 C.3     1  UNL1        0.0569
     16 C         140.4815  143.2776  160.7335 C.3     1  UNL1        0.0196
     17 C         140.2940  145.3876  162.8577 C.3     1  UNL1        0.0196
     18 C         140.4126  145.3977  160.7397 C.3     1  UNL1        0.0196
     19 C         142.2208  141.5773  170.4510 C.3     1  UNL1        0.2525
     20 O         140.8104  141.2680  170.0448 O.3     1  UNL1       -0.4714
     21 C         137.8669  139.6629  162.9467 C.3     1  UNL1        0.1212
     22 C         138.5736  139.7983  161.6306 C.ar    1  UNL1       -0.0023
     23 C         137.8375  140.3260  160.4348 C.ar    1  UNL1       -0.0026
     24 C         138.5442  140.4614  159.1187 C.ar    1  UNL1       -0.0003
     25 C         139.9870  140.0691  158.9983 C.ar    1  UNL1       -0.0000
     26 C         140.7230  139.5413  160.1940 C.ar    1  UNL1       -0.0003
     27 C         140.0163  139.4059  161.5101 C.ar    1  UNL1       -0.0024
     28 C         140.7523  138.8782  162.7058 C.ar    1  UNL1       -0.0003
     29 C         140.5120  137.4737  163.1747 C.ar    1  UNL1       -0.0000
     30 C         141.2481  136.9460  164.3704 C.ar    1  UNL1       -0.0000
     31 C         142.2244  137.8226  165.0972 C.ar    1  UNL1       -0.0000
     32 C         142.4647  139.2270  164.6284 C.ar    1  UNL1       -0.0000
     33 C         141.7287  139.7548  163.4326 C.ar    1  UNL1       -0.0000
@<TRIPOS>BOND
     1    19    20    1
     2    20     1    1
     3     1     2   ar
     4     2     3   ar
     5     3     4   ar
     6     4     5   ar
     7     5     6   ar
     8     5     7    1
     9     7     8    2
    10     7     9   am
    11     9    21    1
    12    21    22    1
    13    22    23   ar
    14    23    24   ar
    15    24    25   ar
    16    25    26   ar
    17    26    27   ar
    18    27    28    1
    19    28    29   ar
    20    29    30   ar
    21    30    31   ar
    22    31    32   ar
    23    32    33   ar
    24     9    10    1
    25    10    11    1
    26    11    12    2
    27    11    13   am
    28    13    15    1
    29    15    16    1
    30    15    17    1
    31    15    18    1
    32     6     1   ar
    33    27    22   ar
    34    33    28   ar
    35    10     4    1
    36    13    14    1
@<TRIPOS>MOLECULE
*****
 33 36 0 0 0
SMALL
GASTEIGER

@<TRIPOS>ATOM
      1 C         141.0556  137.3232  156.6433 C.ar    1  UNL1        0.1389
      2 C         142.3855  137.1710  157.3201 C.ar    1  UNL1        0.0366
      3 C         142.5937  137.7256  158.6981 C.ar    1  UNL1        0.0011
      4 C         141.4719  138.4324  159.3995 C.ar    1  UNL1        0.0091
      5 C         140.1419  138.5846  158.7227 C.ar    1  UNL1        0.0547
      6 C         139.9338  138.0300  157.3446 C.ar    1  UNL1        0.0412
      7 C         139.2292  139.3243  159.6554 C.2     1  UNL1        0.2497
      8 O         137.8013  139.6941  159.3827 O.2     1  UNL1       -0.2699
      9 N         139.9951  139.6292  160.9085 N.am    1  UNL1       -0.2619
     10 C         141.3811  139.0780  160.7504 C.3     1  UNL1        0.1753
     11 C         142.4830  139.1582  161.7650 C.2     1  UNL1        0.2448
     12 O         143.2540  137.9257  162.1340 O.2     1  UNL1       -0.2729
     13 N         142.8139  140.4711  162.4106 N.am    1  UNL1       -0.3059
     14 H         142.3079  141.2802  162.1684 H       1  UNL1        0.1494
     15 C         143.9158  140.5514  163.4252 C.3     1  UNL1        0.0569
     16 C         142.9591  140.1226  164.4980 C.3     1  UNL1        0.0196
     17 C         144.8724  140.9801  162.3524 C.3     1  UNL1        0.0196
     18 C         145.0176  140.6316  164.4399 C.3     1  UNL1        0.0196
     19 C         141.0439  135.3039  155.0087 C.3     1  UNL1        0.2525
     20 O         140.8475  136.7686  155.2652 O.3     1  UNL1       -0.4714
     21 C         139.4675  140.3575  162.1092 C.3     1  UNL1        0.1212
     22 C         139.1402  139.6001  163.3618 C.ar    1  UNL1       -0.0023
     23 C         139.0898  138.1011  163.3404 C.ar    1  UNL1       -0.0026
     24 C         138.7625  137.3436  164.5930 C.ar    1  UNL1       -0.0003
     25 C         138.4857  138.0853  165.8672 C.ar    1  UNL1       -0.0000
     26 C         138.5361  139.5842  165.8886 C.ar    1  UNL1       -0.0003
     27 C         138.8634  140.3417  164.6359 C.ar    1  UNL1       -0.0024
     28 C         138.9138  141.8406  164.6574 C.ar    1  UNL1       -0.0003
     29 C         140.1912  142.5431  165.0109 C.ar    1  UNL1       -0.0000
     30 C         140.2416  144.0421  165.0323 C.ar    1  UNL1       -0.0000
     31 C         139.0147  144.8386  164.7003 C.ar    1  UNL1       -0.0000
     32 C         137.7374  144.1362  164.3467 C.ar    1  UNL1       -0.0000
     33 C         137.6869  142.6372  164.3253 C.ar    1  UNL1       -0.0000
@<TRIPOS>BOND
     1    19    20    1
     2    20     1    1
     3     1     2   ar
     4     2     3   ar
     5     3     4   ar
     6     4     5   ar
     7     5     6   ar
     8     5     7    1
     9     7     8    2
    10     7     9   am
    11     9    21    1
    12    21    22    1
    13    22    23   ar
    14    23    24   ar
    15    24    25   ar
    16    25    26   ar
    17    26    27   ar
    18    27    28    1
    19    28    29   ar
    20    29    30   ar
    21    30    31   ar
    22    31    32   ar
    23    32    33   ar
    24     9    10    1
    25    10    11    1
    26    11    12    2
    27    11    13   am
    28    13    15    1
    29    15    16    1
    30    15    17    1
    31    15    18    1
    32     6     1   ar
    33    27    22   ar
    34    33    28   ar
    35    10     4    1
    36    13    14    1
@<TRIPOS>MOLECULE
*****
 33 36 0 0 0
SMALL
GASTEIGER

@<TRIPOS>ATOM
      1 C         143.8260  142.1917  159.3065 C.ar    1  UNL1        0.1389
      2 C         142.9380  143.3171  159.7479 C.ar    1  UNL1        0.0366
      3 C         141.9682  143.1102  160.8733 C.ar    1  UNL1        0.0011
      4 C         141.8864  141.7778  161.5574 C.ar    1  UNL1        0.0091
      5 C         142.7744  140.6524  161.1160 C.ar    1  UNL1        0.0547
      6 C         143.7442  140.8593  159.9906 C.ar    1  UNL1        0.0412
      7 C         142.4714  139.4592  161.9733 C.2     1  UNL1        0.2497
      8 O         143.1283  138.1142  161.8763 O.2     1  UNL1       -0.2699
      9 N         141.3961  139.8474  162.9444 N.am    1  UNL1       -0.2619
     10 C         141.0346  141.2803  162.6874 C.3     1  UNL1        0.1753
     11 C         140.0025  142.0761  163.4300 C.2     1  UNL1        0.2448
     12 O         138.5845  141.5912  163.4938 O.2     1  UNL1       -0.2729
     13 N         140.3884  143.3568  164.1090 N.am    1  UNL1       -0.3059
     14 H         141.3191  143.6750  164.0671 H       1  UNL1        0.1494
     15 C         139.3563  144.1525  164.8516 C.3     1  UNL1        0.0569
     16 C         139.7539  143.4755  166.1297 C.3     1  UNL1        0.0196
     17 C         138.9586  144.8295  163.5735 C.3     1  UNL1        0.0196
     18 C         138.3241  144.9483  165.5943 C.3     1  UNL1        0.0196
     19 C         145.0769  141.2831  157.2185 C.3     1  UNL1        0.2525
     20 O         144.7958  142.3986  158.1810 O.3     1  UNL1       -0.4714
     21 C         140.7890  138.9586  163.9892 C.3     1  UNL1        0.1212
     22 C         140.6061  139.4640  165.3896 C.ar    1  UNL1       -0.0023
     23 C         139.2946  139.2703  166.0916 C.ar    1  UNL1       -0.0026
     24 C         139.1118  139.7757  167.4920 C.ar    1  UNL1       -0.0003
     25 C         140.2403  140.4748  168.1904 C.ar    1  UNL1       -0.0000
     26 C         141.5517  140.6685  167.4885 C.ar    1  UNL1       -0.0003
     27 C         141.7345  140.1631  166.0880 C.ar    1  UNL1       -0.0024
     28 C         143.0459  140.3568  165.3861 C.ar    1  UNL1       -0.0003
     29 C         143.9456  139.1820  165.1400 C.ar    1  UNL1       -0.0000
     30 C         145.2569  139.3756  164.4380 C.ar    1  UNL1       -0.0000
     31 C         145.6686  140.7441  163.9821 C.ar    1  UNL1       -0.0000
     32 C         144.7690  141.9188  164.2281 C.ar    1  UNL1       -0.0000
     33 C         143.4576  141.7252  164.9301 C.ar    1  UNL1       -0.0000
@<TRIPOS>BOND
     1    19    20    1
     2    20     1    1
     3     1     2   ar
     4     2     3   ar
     5     3     4   ar
     6     4     5   ar
     7     5     6   ar
     8     5     7    1
     9     7     8    2
    10     7     9   am
    11     9    21    1
    12    21    22    1
    13    22    23   ar
    14    23    24   ar
    15    24    25   ar
    16    25    26   ar
    17    26    27   ar
    18    27    28    1
    19    28    29   ar
    20    29    30   ar
    21    30    31   ar
    22    31    32   ar
    23    32    33   ar
    24     9    10    1
    25    10    11    1
    26    11    12    2
    27    11    13   am
    28    13    15    1
    29    15    16    1
    30    15    17    1
    31    15    18    1
    32     6     1   ar
    33    27    22   ar
    34    33    28   ar
    35    10     4    1
    36    13    14    1
@<TRIPOS>MOLECULE
*****
 33 36 0 0 0
SMALL
GASTEIGER

@<TRIPOS>ATOM
      1 C         142.4816  139.3232  167.1922 C.ar    1  UNL1        0.1389
      2 C         143.2794  138.7374  166.0651 C.ar    1  UNL1        0.0366
      3 C         142.6754  138.6277  164.6965 C.ar    1  UNL1        0.0011
      4 C         141.2737  139.1037  164.4549 C.ar    1  UNL1        0.0091
      5 C         140.4759  139.6895  165.5820 C.ar    1  UNL1        0.0547
      6 C         141.0798  139.7992  166.9507 C.ar    1  UNL1        0.0412
      7 C         139.1279  140.0717  165.0462 C.2     1  UNL1        0.2497
      8 O         138.0113  140.6941  165.8309 O.2     1  UNL1       -0.2699
      9 N         139.0927  139.7221  163.5880 N.am    1  UNL1       -0.2619
     10 C         140.4188  139.1239  163.2225 C.3     1  UNL1        0.1753
     11 C         140.8198  138.6321  161.8633 C.2     1  UNL1        0.2448
     12 O         140.0409  137.5332  161.2034 O.2     1  UNL1       -0.2729
     13 N         141.9997  139.2394  161.1640 N.am    1  UNL1       -0.3059
     14 H         142.5109  139.9607  161.5971 H       1  UNL1        0.1494
     15 C         142.4006  138.7476  159.8048 C.3     1  UNL1        0.0569
     16 C         143.1988  137.6470  160.4384 C.3     1  UNL1        0.0196
     17 C         141.6024  139.8483  159.1712 C.3     1  UNL1        0.0196
     18 C         142.8016  138.2558  158.4456 C.3     1  UNL1        0.0196
     19 C         142.2113  139.3402  169.7761 C.3     1  UNL1        0.2525
     20 O         143.0856  139.4329  168.5609 O.3     1  UNL1       -0.4714
     21 C         137.9346  139.9336  162.6583 C.3     1  UNL1        0.1212
     22 C         138.1383  140.6536  161.3582 C.ar    1  UNL1       -0.0023
     23 C         137.8900  139.9433  160.0606 C.ar    1  UNL1       -0.0026
     24 C         138.0938  140.6633  158.7605 C.ar    1  UNL1       -0.0003
     25 C         138.5458  142.0936  158.7582 C.ar    1  UNL1       -0.0000
     26 C         138.7940  142.8039  160.0558 C.ar    1  UNL1       -0.0003
     27 C         138.5903  142.0839  161.3558 C.ar    1  UNL1       -0.0024
     28 C         138.8386  142.7941  162.6534 C.ar    1  UNL1       -0.0003
     29 C         137.6910  143.3894  163.4142 C.ar    1  UNL1       -0.0000
     30 C         137.9392  144.0996  164.7118 C.ar    1  UNL1       -0.0000
     31 C         139.3351  144.2146  165.2488 C.ar    1  UNL1       -0.0000
     32 C         140.4827  143.6194  164.4881 C.ar    1  UNL1       -0.0000
     33 C         140.2345  142.9091  163.1904 C.ar    1  UNL1       -0.0000
@<TRIPOS>BOND
     1    19    20    1
     2    20     1    1
     3     1     2   ar
     4     2     3   ar
     5     3     4   ar
     6     4     5   ar
     7     5     6   ar
     8     5     7    1
     9     7     8    2
    10     7     9   am
    11     9    21    1
    12    21    22    1
    13    22    23   ar
    14    23    24   ar
    15    24    25   ar
    16    25    26   ar
    17    26    27   ar
    18    27    28    1
    19    28    29   ar
    20    29    30   ar
    21    30    31   ar
    22    31    32   ar
    23    32    33   ar
    24     9    10    1
    25    10    11    1
    26    11    12    2
    27    11    13   am
    28    13    15    1
    29    15    16    1
    30    15    17    1
    31    15    18    1
    32     6     1   ar
    33    27    22   ar
    34    33    28   ar
    35    10     4    1
    36    13    14    1
@<TRIPOS>MOLECULE
*****
 33 36 0 0 0
SMALL
GASTEIGER

@<TRIPOS>ATOM
      1 C         138.1161  139.5413  169.2944 C.ar    1  UNL1        0.1389
      2 C         137.4464  138.7005  168.2484 C.ar    1  UNL1        0.0366
      3 C         137.9982  138.6575  166.8542 C.ar    1  UNL1        0.0011
      4 C         139.2197  139.4553  166.5061 C.ar    1  UNL1        0.0091
      5 C         139.8895  140.2961  167.5522 C.ar    1  UNL1        0.0547
      6 C         139.3377  140.3392  168.9464 C.ar    1  UNL1        0.0412
      7 C         141.0703  140.9705  166.9189 C.2     1  UNL1        0.2497
      8 O         142.0237  141.9049  167.6030 O.2     1  UNL1       -0.2699
      9 N         141.1302  140.5464  165.4813 N.am    1  UNL1       -0.2619
     10 C         139.9865  139.6100  165.2263 C.3     1  UNL1        0.1753
     11 C         139.6659  138.9449  163.9206 C.2     1  UNL1        0.2448
     12 O         139.3941  137.4704  163.8766 O.2     1  UNL1       -0.2729
     13 N         139.6170  139.7544  162.6587 N.am    1  UNL1       -0.3059
     14 H         139.7954  140.7222  162.6874 H       1  UNL1        0.1494
     15 C         139.2964  139.0893  161.3529 C.3     1  UNL1        0.0569
     16 C         137.8317  139.1948  161.6589 C.3     1  UNL1        0.0196
     17 C         140.7610  138.9839  161.0470 C.3     1  UNL1        0.0196
     18 C         138.9756  138.4243  160.0472 C.3     1  UNL1        0.0196
     19 C         136.3613  138.7623  171.0448 C.3     1  UNL1        0.2525
     20 O         137.5643  139.5844  170.6886 O.3     1  UNL1       -0.4714
     21 C         142.1541  140.9822  164.4754 C.3     1  UNL1        0.1212
     22 C         142.7222  142.3691  164.5361 C.ar    1  UNL1       -0.0023
     23 C         144.0813  142.5977  165.1284 C.ar    1  UNL1       -0.0026
     24 C         144.6494  143.9846  165.1891 C.ar    1  UNL1       -0.0003
     25 C         143.8584  145.1430  164.6575 C.ar    1  UNL1       -0.0000
     26 C         142.4993  144.9144  164.0653 C.ar    1  UNL1       -0.0003
     27 C         141.9313  143.5275  164.0046 C.ar    1  UNL1       -0.0024
     28 C         140.5722  143.2989  163.4124 C.ar    1  UNL1       -0.0003
     29 C         139.3695  143.2151  164.3050 C.ar    1  UNL1       -0.0000
     30 C         138.0105  142.9866  163.7128 C.ar    1  UNL1       -0.0000
     31 C         137.8541  142.8418  162.2281 C.ar    1  UNL1       -0.0000
     32 C         139.0566  142.9255  161.3355 C.ar    1  UNL1       -0.0000
     33 C         140.4158  143.1541  161.9277 C.ar    1  UNL1       -0.0000
@<TRIPOS>BOND
     1    19    20    1
     2    20     1    1
     3     1     2   ar
     4     2     3   ar
     5     3     4   ar
     6     4     5   ar
     7     5     6   ar
     8     5     7    1
     9     7     8    2
    10     7     9   am
    11     9    21    1
    12    21    22    1
    13    22    23   ar
    14    23    24   ar
    15    24    25   ar
    16    25    26   ar
    17    26    27   ar
    18    27    28    1
    19    28    29   ar
    20    29    30   ar
    21    30    31   ar
    22    31    32   ar
    23    32    33   ar
    24     9    10    1
    25    10    11    1
    26    11    12    2
    27    11    13   am
    28    13    15    1
    29    15    16    1
    30    15    17    1
    31    15    18    1
    32     6     1   ar
    33    27    22   ar
    34    33    28   ar
    35    10     4    1
    36    13    14    1
@<TRIPOS>MOLECULE
*****
 33 36 0 0 0
SMALL
GASTEIGER

@<TRIPOS>ATOM
      1 C         143.0465  138.9718  158.5795 C.ar    1  UNL1        0.1389
      2 C         142.3861  138.0703  159.5801 C.ar    1  UNL1        0.0366
      3 C         141.8966  138.6279  160.8838 C.ar    1  UNL1        0.0011
      4 C         142.0677  140.0870  161.1869 C.ar    1  UNL1        0.0091
      5 C         142.7281  140.9884  160.1863 C.ar    1  UNL1        0.0547
      6 C         143.2176  140.4308  158.8826 C.ar    1  UNL1        0.0412
      7 C         142.7574  142.3744  160.7594 C.2     1  UNL1        0.2497
      8 O         143.3288  143.5915  160.0944 O.2     1  UNL1       -0.2699
      9 N         142.1150  142.3295  162.1141 N.am    1  UNL1       -0.2619
     10 C         141.6887  140.9158  162.3783 C.3     1  UNL1        0.1753
     11 C         141.0038  140.4182  163.6165 C.2     1  UNL1        0.2448
     12 O         141.6839  140.5352  164.9483 O.2     1  UNL1       -0.2729
     13 N         139.6387  139.8036  163.5230 N.am    1  UNL1       -0.3059
     14 H         139.1922  139.7268  162.6489 H       1  UNL1        0.1494
     15 C         138.9537  139.3061  164.7612 C.3     1  UNL1        0.0569
     16 C         138.2648  140.6299  164.9121 C.3     1  UNL1        0.0196
     17 C         139.6426  137.9822  164.6103 C.3     1  UNL1        0.0196
     18 C         138.2687  138.8085  165.9995 C.3     1  UNL1        0.0196
     19 C         142.7220  137.3866  156.5468 C.3     1  UNL1        0.2525
     20 O         143.5360  138.4142  157.2759 O.3     1  UNL1       -0.4714
     21 C         141.9312  143.4938  163.0418 C.3     1  UNL1        0.1212
     22 C         140.5774  143.7882  163.6167 C.ar    1  UNL1       -0.0023
     23 C         140.3793  143.7949  165.1036 C.ar    1  UNL1       -0.0026
     24 C         139.0255  144.0892  165.6786 C.ar    1  UNL1       -0.0003
     25 C         137.8698  144.3769  164.7666 C.ar    1  UNL1       -0.0000
     26 C         138.0679  144.3701  163.2798 C.ar    1  UNL1       -0.0003
     27 C         139.4217  144.0758  162.7049 C.ar    1  UNL1       -0.0024
     28 C         139.6198  144.0691  161.2181 C.ar    1  UNL1       -0.0003
     29 C         140.2489  145.2500  160.5399 C.ar    1  UNL1       -0.0000
     30 C         140.4470  145.2433  159.0531 C.ar    1  UNL1       -0.0000
     31 C         140.0160  144.0557  158.2443 C.ar    1  UNL1       -0.0000
     32 C         139.3869  142.8749  158.9224 C.ar    1  UNL1       -0.0000
     33 C         139.1888  142.8816  160.4093 C.ar    1  UNL1       -0.0000
@<TRIPOS>BOND
     1    19    20    1
     2    20     1    1
     3     1     2   ar
     4     2     3   ar
     5     3     4   ar
     6     4     5   ar
     7     5     6   ar
     8     5     7    1
     9     7     8    2
    10     7     9   am
    11     9    21    1
    12    21    22    1
    13    22    23   ar
    14    23    24   ar
    15    24    25   ar
    16    25    26   ar
    17    26    27   ar
    18    27    28    1
    19    28    29   ar
    20    29    30   ar
    21    30    31   ar
    22    31    32   ar
    23    32    33   ar
    24     9    10    1
    25    10    11    1
    26    11    12    2
    27    11    13   am
    28    13    15    1
    29    15    16    1
    30    15    17    1
    31    15    18    1
    32     6     1   ar
    33    27    22   ar
    34    33    28   ar
    35    10     4    1
    36    13    14    1
