@<TRIPOS>MOLECULE
*****
 29 31 0 0 0
SMALL
GASTEIGER

@<TRIPOS>ATOM
      1 C         137.9681  138.6436  162.1055 C.3     1  UNL1        0.1164
      2 N         138.5988  139.2619  163.3179 N.am    1  UNL1       -0.2622
      3 C         139.1202  140.6671  163.2580 C.2     1  UNL1        0.3079
      4 O         139.0109  141.4540  161.9856 O.2     1  UNL1       -0.2523
      5 N         139.7508  141.2854  164.4704 N.am    1  UNL1       -0.2540
      6 C         139.9290  140.6249  165.8053 C.3     1  UNL1        0.1221
      7 C         140.6024  141.6041  166.7207 C.2     1  UNL1       -0.0024
      8 C         140.8403  142.8696  165.9516 C.2     1  UNL1       -0.0047
      9 C         140.3141  142.6727  164.5608 C.3     1  UNL1        0.1217
     10 C         140.9727  141.3603  168.1538 C.ar    1  UNL1        0.0271
     11 C         141.5969  140.0570  168.5559 C.ar    1  UNL1        0.0316
     12 C         141.9672  139.8133  169.9888 C.ar    1  UNL1        0.1403
     13 F         142.5914  138.5100  170.3910 F       1  UNL1       -0.2042
     14 C         141.7134  140.8730  171.0197 C.ar    1  UNL1        0.0319
     15 C         141.0892  142.1763  170.6176 C.ar    1  UNL1        0.0319
     16 C         140.7189  142.4200  169.1846 C.ar    1  UNL1        0.1400
     17 F         140.0946  143.7233  168.7825 F       1  UNL1       -0.2042
     18 C         140.3455  143.6853  163.4546 C.ar    1  UNL1       -0.0001
     19 C         141.4742  143.6821  162.4667 C.ar    1  UNL1       -0.0023
     20 C         141.5056  144.6947  161.3605 C.ar    1  UNL1       -0.0003
     21 C         140.4083  145.7105  161.2422 C.ar    1  UNL1       -0.0000
     22 C         139.2795  145.7138  162.2302 C.ar    1  UNL1       -0.0003
     23 C         139.2482  144.7012  163.3363 C.ar    1  UNL1       -0.0023
     24 C         138.7081  138.4750  164.5903 C.3     1  UNL1        0.0964
     25 C         139.5765  137.2532  164.6442 C.3     1  UNL1        0.0384
     26 C         140.9924  137.3173  164.1533 C.3     1  UNL1        0.0669
     27 N         141.3088  136.9699  162.7287 N.3     1  UNL1       -0.3211
     28 H         141.1176  135.9807  162.5695 H       1  UNL1        0.1189
     29 H         142.2936  137.1600  162.5431 H       1  UNL1        0.1189
@<TRIPOS>BOND
     1     1     2    1
     2     2    24    1
     3    24    25    1
     4    25    26    1
     5    26    27    1
     6     2     3   am
     7     3     4    2
     8     3     5   am
     9     5     6    1
    10     6     7    1
    11     7    10    1
    12    10    11   ar
    13    11    12   ar
    14    12    13    1
    15    12    14   ar
    16    14    15   ar
    17    15    16   ar
    18    16    17    1
    19     7     8    2
    20     8     9    1
    21     9    18    1
    22    18    19   ar
    23    19    20   ar
    24    20    21   ar
    25    21    22   ar
    26    22    23   ar
    27     9     5    1
    28    23    18   ar
    29    16    10   ar
    30    27    28    1
    31    27    29    1
@<TRIPOS>MOLECULE
*****
 29 31 0 0 0
SMALL
GASTEIGER

@<TRIPOS>ATOM
      1 C         138.1763  137.9845  166.2124 C.3     1  UNL1        0.1164
      2 N         138.7597  139.1550  165.4779 N.am    1  UNL1       -0.2622
      3 C         139.5941  140.1616  166.2132 C.2     1  UNL1        0.3079
      4 O         139.8450  139.9976  167.6830 O.2     1  UNL1       -0.2523
      5 N         140.1776  141.3320  165.4787 N.am    1  UNL1       -0.2540
      6 C         140.0136  141.6265  164.0170 C.3     1  UNL1        0.1221
      7 C         140.7621  142.8900  163.7119 C.2     1  UNL1       -0.0024
      8 C         141.3887  143.3766  164.9849 C.2     1  UNL1       -0.0047
      9 C         141.0275  142.4137  166.0769 C.3     1  UNL1        0.1217
     10 C         140.8658  143.5510  162.3693 C.ar    1  UNL1        0.0271
     11 C         141.6580  142.9023  161.2731 C.ar    1  UNL1        0.0316
     12 C         141.7617  143.5633  159.9307 C.ar    1  UNL1        0.1403
     13 F         142.5539  142.9146  158.8344 F       1  UNL1       -0.2042
     14 C         141.0732  144.8730  159.6843 C.ar    1  UNL1        0.0319
     15 C         140.2810  145.5217  160.7805 C.ar    1  UNL1        0.0319
     16 C         140.1773  144.8607  162.1229 C.ar    1  UNL1        0.1400
     17 F         139.3851  145.5094  163.2192 F       1  UNL1       -0.2042
     18 C         141.4431  142.5147  167.5146 C.ar    1  UNL1       -0.0001
     19 C         140.5155  143.1264  168.5223 C.ar    1  UNL1       -0.0023
     20 C         140.9311  143.2274  169.9600 C.ar    1  UNL1       -0.0003
     21 C         142.2743  142.7168  170.3900 C.ar    1  UNL1       -0.0000
     22 C         143.2020  142.1050  169.3823 C.ar    1  UNL1       -0.0003
     23 C         142.7863  142.0041  167.9447 C.ar    1  UNL1       -0.0023
     24 C         138.5088  139.3189  164.0081 C.3     1  UNL1        0.0964
     25 C         138.8676  138.2148  163.0584 C.3     1  UNL1        0.0384
     26 C         140.2568  138.1284  162.4991 C.3     1  UNL1        0.0669
     27 N         141.1257  136.9506  162.8276 N.3     1  UNL1       -0.3211
     28 H         141.3429  136.9558  163.8242 H       1  UNL1        0.1189
     29 H         141.9911  137.0063  162.2907 H       1  UNL1        0.1189
@<TRIPOS>BOND
     1     1     2    1
     2     2    24    1
     3    24    25    1
     4    25    26    1
     5    26    27    1
     6     2     3   am
     7     3     4    2
     8     3     5   am
     9     5     6    1
    10     6     7    1
    11     7    10    1
    12    10    11   ar
    13    11    12   ar
    14    12    13    1
    15    12    14   ar
    16    14    15   ar
    17    15    16   ar
    18    16    17    1
    19     7     8    2
    20     8     9    1
    21     9    18    1
    22    18    19   ar
    23    19    20   ar
    24    20    21   ar
    25    21    22   ar
    26    22    23   ar
    27     9     5    1
    28    23    18   ar
    29    16    10   ar
    30    27    28    1
    31    27    29    1
@<TRIPOS>MOLECULE
*****
 29 31 0 0 0
SMALL
GASTEIGER

@<TRIPOS>ATOM
      1 C         138.1692  137.9253  166.2226 C.3     1  UNL1        0.1164
      2 N         138.7211  139.1457  165.5475 N.am    1  UNL1       -0.2622
      3 C         139.5684  140.1121  166.3209 C.2     1  UNL1        0.3079
      4 O         139.8640  139.8579  167.7694 O.2     1  UNL1       -0.2523
      5 N         140.1203  141.3325  165.6457 N.am    1  UNL1       -0.2540
      6 C         139.9109  141.7173  164.2111 C.3     1  UNL1        0.1221
      7 C         140.6397  143.0051  163.9654 C.2     1  UNL1       -0.0024
      8 C         141.2996  143.4163  165.2482 C.2     1  UNL1       -0.0047
      9 C         140.9786  142.3827  166.2867 C.3     1  UNL1        0.1217
     10 C         140.6983  143.7508  162.6652 C.ar    1  UNL1        0.0271
     11 C         139.9248  145.0248  162.4957 C.ar    1  UNL1        0.0316
     12 C         139.9835  145.7704  161.1955 C.ar    1  UNL1        0.1403
     13 F         139.2100  147.0444  161.0259 F       1  UNL1       -0.2042
     14 C         140.8156  145.2421  160.0648 C.ar    1  UNL1        0.0319
     15 C         141.5891  143.9682  160.2343 C.ar    1  UNL1        0.0319
     16 C         141.5304  143.2225  161.5345 C.ar    1  UNL1        0.1400
     17 F         142.3040  141.9485  161.7040 F       1  UNL1       -0.2042
     18 C         141.4356  142.3966  167.7153 C.ar    1  UNL1       -0.0001
     19 C         140.5570  142.9868  168.7781 C.ar    1  UNL1       -0.0023
     20 C         141.0140  143.0007  170.2067 C.ar    1  UNL1       -0.0003
     21 C         142.3497  142.4244  170.5725 C.ar    1  UNL1       -0.0000
     22 C         143.2284  141.8342  169.5096 C.ar    1  UNL1       -0.0003
     23 C         142.7713  141.8203  168.0811 C.ar    1  UNL1       -0.0023
     24 C         138.4255  139.3999  164.0990 C.3     1  UNL1        0.0964
     25 C         138.9724  138.4787  163.0492 C.3     1  UNL1        0.0384
     26 C         140.4544  138.2880  162.9171 C.3     1  UNL1        0.0669
     27 N         141.0462  136.9137  163.0236 N.3     1  UNL1       -0.3211
     28 H         140.9121  136.5582  163.9702 H       1  UNL1        0.1189
     29 H         142.0436  136.9559  162.8144 H       1  UNL1        0.1189
@<TRIPOS>BOND
     1     1     2    1
     2     2    24    1
     3    24    25    1
     4    25    26    1
     5    26    27    1
     6     2     3   am
     7     3     4    2
     8     3     5   am
     9     5     6    1
    10     6     7    1
    11     7    10    1
    12    10    11   ar
    13    11    12   ar
    14    12    13    1
    15    12    14   ar
    16    14    15   ar
    17    15    16   ar
    18    16    17    1
    19     7     8    2
    20     8     9    1
    21     9    18    1
    22    18    19   ar
    23    19    20   ar
    24    20    21   ar
    25    21    22   ar
    26    22    23   ar
    27     9     5    1
    28    23    18   ar
    29    16    10   ar
    30    27    28    1
    31    27    29    1
@<TRIPOS>MOLECULE
*****
 29 31 0 0 0
SMALL
GASTEIGER

@<TRIPOS>ATOM
      1 C         138.7225  144.9574  165.5585 C.3     1  UNL1        0.1164
      2 N         139.4750  143.7691  165.0374 N.am    1  UNL1       -0.2622
      3 C         140.1938  142.8600  165.9897 C.2     1  UNL1        0.3079
      4 O         140.1602  143.1394  167.4631 O.2     1  UNL1       -0.2523
      5 N         140.9463  141.6717  165.4687 N.am    1  UNL1       -0.2540
      6 C         141.0685  141.2672  164.0294 C.3     1  UNL1        0.1221
      7 C         141.9064  140.0247  163.9666 C.2     1  UNL1       -0.0024
      8 C         142.3021  139.6611  165.3670 C.2     1  UNL1       -0.0047
      9 C         141.7087  140.6790  166.2954 C.3     1  UNL1        0.1217
     10 C         142.2826  139.2769  162.7218 C.ar    1  UNL1        0.0271
     11 C         141.2769  139.0938  161.6241 C.ar    1  UNL1        0.0316
     12 C         141.6532  138.3461  160.3794 C.ar    1  UNL1        0.1403
     13 F         140.6474  138.1629  159.2816 F       1  UNL1       -0.2042
     14 C         143.0351  137.7815  160.2324 C.ar    1  UNL1        0.0319
     15 C         144.0407  137.9647  161.3301 C.ar    1  UNL1        0.0319
     16 C         143.6645  138.7124  162.5748 C.ar    1  UNL1        0.1400
     17 F         144.6702  138.8956  163.6726 F       1  UNL1       -0.2042
     18 C         141.8524  140.7004  167.7883 C.ar    1  UNL1       -0.0001
     19 C         142.9865  141.4504  168.4219 C.ar    1  UNL1       -0.0023
     20 C         143.1303  141.4718  169.9149 C.ar    1  UNL1       -0.0003
     21 C         142.1400  140.7434  170.7742 C.ar    1  UNL1       -0.0000
     22 C         141.0058  139.9934  170.1406 C.ar    1  UNL1       -0.0003
     23 C         140.8621  139.9719  168.6477 C.ar    1  UNL1       -0.0023
     24 C         139.5086  143.4897  163.5640 C.3     1  UNL1        0.0964
     25 C         138.2307  143.4454  162.7798 C.3     1  UNL1        0.0384
     26 C         137.6954  142.1318  162.2919 C.3     1  UNL1        0.0669
     27 N         136.7764  141.3266  163.1622 N.3     1  UNL1       -0.3211
     28 H         137.2828  141.0083  163.9884 H       1  UNL1        0.1189
     29 H         136.4350  140.5193  162.6407 H       1  UNL1        0.1189
@<TRIPOS>BOND
     1     1     2    1
     2     2    24    1
     3    24    25    1
     4    25    26    1
     5    26    27    1
     6     2     3   am
     7     3     4    2
     8     3     5   am
     9     5     6    1
    10     6     7    1
    11     7    10    1
    12    10    11   ar
    13    11    12   ar
    14    12    13    1
    15    12    14   ar
    16    14    15   ar
    17    15    16   ar
    18    16    17    1
    19     7     8    2
    20     8     9    1
    21     9    18    1
    22    18    19   ar
    23    19    20   ar
    24    20    21   ar
    25    21    22   ar
    26    22    23   ar
    27     9     5    1
    28    23    18   ar
    29    16    10   ar
    30    27    28    1
    31    27    29    1
@<TRIPOS>MOLECULE
*****
 29 31 0 0 0
SMALL
GASTEIGER

@<TRIPOS>ATOM
      1 C         140.9493  144.7207  162.0193 C.3     1  UNL1        0.1164
      2 N         140.9317  143.7796  163.1871 N.am    1  UNL1       -0.2622
      3 C         141.3453  142.3494  163.0041 C.2     1  UNL1        0.3079
      4 O         141.7764  141.8603  161.6532 O.2     1  UNL1       -0.2523
      5 N         141.3277  141.4083  164.1720 N.am    1  UNL1       -0.2540
      6 C         140.9228  141.7515  165.5749 C.3     1  UNL1        0.1221
      7 C         141.0568  140.5140  166.4120 C.2     1  UNL1       -0.0024
      8 C         141.5445  139.4059  165.5264 C.2     1  UNL1       -0.0047
      9 C         141.7119  139.9586  164.1420 C.3     1  UNL1        0.1217
     10 C         140.7559  140.4040  167.8774 C.ar    1  UNL1        0.0271
     11 C         139.3406  140.2255  168.3411 C.ar    1  UNL1        0.0316
     12 C         139.0398  140.1154  169.8065 C.ar    1  UNL1        0.1403
     13 F         137.6245  139.9369  170.2703 F       1  UNL1       -0.2042
     14 C         140.1543  140.1839  170.8081 C.ar    1  UNL1        0.0319
     15 C         141.5695  140.3624  170.3444 C.ar    1  UNL1        0.0319
     16 C         141.8704  140.4724  168.8791 C.ar    1  UNL1        0.1400
     17 F         143.2857  140.6509  168.4153 F       1  UNL1       -0.2042
     18 C         142.1811  139.1955  162.9388 C.ar    1  UNL1       -0.0001
     19 C         143.6471  138.9625  162.7233 C.ar    1  UNL1       -0.0023
     20 C         144.1164  138.1994  161.5201 C.ar    1  UNL1       -0.0003
     21 C         143.1196  137.6695  160.5325 C.ar    1  UNL1       -0.0000
     22 C         141.6534  137.9025  160.7480 C.ar    1  UNL1       -0.0003
     23 C         141.1843  138.6655  161.9511 C.ar    1  UNL1       -0.0023
     24 C         140.5006  144.2687  164.5381 C.3     1  UNL1        0.0964
     25 C         139.1068  144.7851  164.7390 C.3     1  UNL1        0.0384
     26 C         137.9420  144.0511  164.1435 C.3     1  UNL1        0.0669
     27 N         137.4844  144.3735  162.7518 N.3     1  UNL1       -0.3211
     28 H         137.1178  145.3250  162.7263 H       1  UNL1        0.1189
     29 H         136.7525  143.7195  162.4745 H       1  UNL1        0.1189
@<TRIPOS>BOND
     1     1     2    1
     2     2    24    1
     3    24    25    1
     4    25    26    1
     5    26    27    1
     6     2     3   am
     7     3     4    2
     8     3     5   am
     9     5     6    1
    10     6     7    1
    11     7    10    1
    12    10    11   ar
    13    11    12   ar
    14    12    13    1
    15    12    14   ar
    16    14    15   ar
    17    15    16   ar
    18    16    17    1
    19     7     8    2
    20     8     9    1
    21     9    18    1
    22    18    19   ar
    23    19    20   ar
    24    20    21   ar
    25    21    22   ar
    26    22    23   ar
    27     9     5    1
    28    23    18   ar
    29    16    10   ar
    30    27    28    1
    31    27    29    1
@<TRIPOS>MOLECULE
*****
 29 31 0 0 0
SMALL
GASTEIGER

@<TRIPOS>ATOM
      1 C         138.5548  144.9241  165.7278 C.3     1  UNL1        0.1164
      2 N         139.4168  143.8646  165.1079 N.am    1  UNL1       -0.2622
      3 C         140.2715  142.9900  165.9766 C.2     1  UNL1        0.3079
      4 O         140.2642  143.1750  167.4651 O.2     1  UNL1       -0.2523
      5 N         141.1336  141.9305  165.3567 N.am    1  UNL1       -0.2540
      6 C         141.2445  141.6298  163.8914 C.3     1  UNL1        0.1221
      7 C         142.2156  140.4991  163.7224 C.2     1  UNL1       -0.0024
      8 C         142.7048  140.1010  165.0833 C.2     1  UNL1       -0.0047
      9 C         142.0362  140.9856  166.0934 C.3     1  UNL1        0.1217
     10 C         142.6254  139.8759  162.4209 C.ar    1  UNL1        0.0271
     11 C         143.2394  140.7216  161.3449 C.ar    1  UNL1        0.0316
     12 C         143.6492  140.0985  160.0435 C.ar    1  UNL1        0.1403
     13 F         144.2631  140.9442  158.9674 F       1  UNL1       -0.2042
     14 C         143.4450  138.6296  159.8181 C.ar    1  UNL1        0.0319
     15 C         142.8311  137.7839  160.8941 C.ar    1  UNL1        0.0319
     16 C         142.4213  138.4071  162.1955 C.ar    1  UNL1        0.1400
     17 F         141.8073  137.5614  163.2716 F       1  UNL1       -0.2042
     18 C         142.2351  140.9343  167.5792 C.ar    1  UNL1       -0.0001
     19 C         141.4610  139.9509  168.4061 C.ar    1  UNL1       -0.0023
     20 C         141.6599  139.8997  169.8920 C.ar    1  UNL1       -0.0003
     21 C         142.6329  140.8318  170.5509 C.ar    1  UNL1       -0.0000
     22 C         143.4071  141.8153  169.7241 C.ar    1  UNL1       -0.0003
     23 C         143.2081  141.8664  168.2383 C.ar    1  UNL1       -0.0023
     24 C         139.4241  143.6796  163.6194 C.3     1  UNL1        0.0964
     25 C         138.1289  143.5730  162.8705 C.3     1  UNL1        0.0384
     26 C         137.6772  142.2452  162.3385 C.3     1  UNL1        0.0669
     27 N         136.7898  141.3668  163.1698 N.3     1  UNL1       -0.3211
     28 H         137.2986  141.0551  163.9971 H       1  UNL1        0.1189
     29 H         136.5037  140.5559  162.6210 H       1  UNL1        0.1189
@<TRIPOS>BOND
     1     1     2    1
     2     2    24    1
     3    24    25    1
     4    25    26    1
     5    26    27    1
     6     2     3   am
     7     3     4    2
     8     3     5   am
     9     5     6    1
    10     6     7    1
    11     7    10    1
    12    10    11   ar
    13    11    12   ar
    14    12    13    1
    15    12    14   ar
    16    14    15   ar
    17    15    16   ar
    18    16    17    1
    19     7     8    2
    20     8     9    1
    21     9    18    1
    22    18    19   ar
    23    19    20   ar
    24    20    21   ar
    25    21    22   ar
    26    22    23   ar
    27     9     5    1
    28    23    18   ar
    29    16    10   ar
    30    27    28    1
    31    27    29    1
@<TRIPOS>MOLECULE
*****
 29 31 0 0 0
SMALL
GASTEIGER

@<TRIPOS>ATOM
      1 C         137.7832  142.5141  161.9007 C.3     1  UNL1        0.1164
      2 N         138.5539  142.2436  163.1588 N.am    1  UNL1       -0.2622
      3 C         139.8450  141.4823  163.0983 C.2     1  UNL1        0.3079
      4 O         140.3653  140.9916  161.7798 O.2     1  UNL1       -0.2523
      5 N         140.6157  141.2118  164.3564 N.am    1  UNL1       -0.2540
      6 C         140.2227  141.6376  165.7400 C.3     1  UNL1        0.1221
      7 C         141.2788  141.1570  166.6905 C.2     1  UNL1       -0.0024
      8 C         142.3246  140.4341  165.8944 C.2     1  UNL1       -0.0047
      9 C         141.9148  140.4680  164.4519 C.3     1  UNL1        0.1217
     10 C         141.2876  141.3630  168.1763 C.ar    1  UNL1        0.0271
     11 C         142.2498  142.3345  168.7931 C.ar    1  UNL1        0.0316
     12 C         142.2586  142.5405  170.2788 C.ar    1  UNL1        0.1403
     13 F         143.2208  143.5119  170.8957 F       1  UNL1       -0.2042
     14 C         141.3051  141.7751  171.1478 C.ar    1  UNL1        0.0319
     15 C         140.3429  140.8036  170.5310 C.ar    1  UNL1        0.0319
     16 C         140.3342  140.5976  169.0453 C.ar    1  UNL1        0.1400
     17 F         139.3719  139.6261  168.4284 F       1  UNL1       -0.2042
     18 C         142.6713  139.8641  163.3060 C.ar    1  UNL1       -0.0001
     19 C         143.6139  140.7090  162.5013 C.ar    1  UNL1       -0.0023
     20 C         144.3704  140.1051  161.3554 C.ar    1  UNL1       -0.0003
     21 C         144.1842  138.6564  161.0142 C.ar    1  UNL1       -0.0000
     22 C         143.2416  137.8114  161.8190 C.ar    1  UNL1       -0.0003
     23 C         142.4852  138.4153  162.9648 C.ar    1  UNL1       -0.0023
     24 C         138.0336  142.7343  164.4773 C.3     1  UNL1        0.0964
     25 C         137.9953  144.2053  164.7678 C.3     1  UNL1        0.0384
     26 C         139.2540  145.0177  164.6920 C.3     1  UNL1        0.0669
     27 N         139.7441  145.5197  163.3661 N.3     1  UNL1       -0.3211
     28 H         140.0161  144.7286  162.7825 H       1  UNL1        0.1189
     29 H         140.5494  146.1290  163.5097 H       1  UNL1        0.1189
@<TRIPOS>BOND
     1     1     2    1
     2     2    24    1
     3    24    25    1
     4    25    26    1
     5    26    27    1
     6     2     3   am
     7     3     4    2
     8     3     5   am
     9     5     6    1
    10     6     7    1
    11     7    10    1
    12    10    11   ar
    13    11    12   ar
    14    12    13    1
    15    12    14   ar
    16    14    15   ar
    17    15    16   ar
    18    16    17    1
    19     7     8    2
    20     8     9    1
    21     9    18    1
    22    18    19   ar
    23    19    20   ar
    24    20    21   ar
    25    21    22   ar
    26    22    23   ar
    27     9     5    1
    28    23    18   ar
    29    16    10   ar
    30    27    28    1
    31    27    29    1
@<TRIPOS>MOLECULE
*****
 29 31 0 0 0
SMALL
GASTEIGER

@<TRIPOS>ATOM
      1 C         144.1443  137.9421  166.4153 C.3     1  UNL1        0.1164
      2 N         143.3854  139.0307  165.7161 N.am    1  UNL1       -0.2622
      3 C         142.4387  139.9005  166.4889 C.2     1  UNL1        0.3079
      4 O         142.2509  139.6816  167.9609 O.2     1  UNL1       -0.2523
      5 N         141.6798  140.9891  165.7897 N.am    1  UNL1       -0.2540
      6 C         141.7636  141.3250  164.3302 C.3     1  UNL1        0.1221
      7 C         140.8394  142.4765  164.0657 C.2     1  UNL1       -0.0024
      8 C         140.1844  142.8523  165.3617 C.2     1  UNL1       -0.0047
      9 C         140.7038  141.9331  166.4272 C.3     1  UNL1        0.1217
     10 C         140.6104  143.1363  162.7381 C.ar    1  UNL1        0.0271
     11 C         139.9934  142.3613  161.6119 C.ar    1  UNL1        0.0316
     12 C         139.7644  143.0211  160.2844 C.ar    1  UNL1        0.1403
     13 F         139.1474  142.2460  159.1581 F       1  UNL1       -0.2042
     14 C         140.1525  144.4560  160.0833 C.ar    1  UNL1        0.0319
     15 C         140.7696  145.2310  161.2095 C.ar    1  UNL1        0.0319
     16 C         140.9985  144.5712  162.5370 C.ar    1  UNL1        0.1400
     17 F         141.6156  145.3463  163.6633 F       1  UNL1       -0.2042
     18 C         140.3154  141.9542  167.8759 C.ar    1  UNL1       -0.0001
     19 C         140.6309  143.1535  168.7197 C.ar    1  UNL1       -0.0023
     20 C         140.2425  143.1746  170.1684 C.ar    1  UNL1       -0.0003
     21 C         139.5386  141.9962  170.7732 C.ar    1  UNL1       -0.0000
     22 C         139.2231  140.7968  169.9295 C.ar    1  UNL1       -0.0003
     23 C         139.6115  140.7758  168.4809 C.ar    1  UNL1       -0.0023
     24 C         143.5731  139.2495  164.2440 C.3     1  UNL1        0.0964
     25 C         144.8932  139.7318  163.7199 C.3     1  UNL1        0.0384
     26 C         145.3627  141.1213  164.0347 C.3     1  UNL1        0.0669
     27 N         146.3107  141.8209  163.1064 N.3     1  UNL1       -0.3211
     28 H         147.2070  141.3340  163.1053 H       1  UNL1        0.1189
     29 H         146.4463  142.7821  163.4198 H       1  UNL1        0.1189
@<TRIPOS>BOND
     1     1     2    1
     2     2    24    1
     3    24    25    1
     4    25    26    1
     5    26    27    1
     6     2     3   am
     7     3     4    2
     8     3     5   am
     9     5     6    1
    10     6     7    1
    11     7    10    1
    12    10    11   ar
    13    11    12   ar
    14    12    13    1
    15    12    14   ar
    16    14    15   ar
    17    15    16   ar
    18    16    17    1
    19     7     8    2
    20     8     9    1
    21     9    18    1
    22    18    19   ar
    23    19    20   ar
    24    20    21   ar
    25    21    22   ar
    26    22    23   ar
    27     9     5    1
    28    23    18   ar
    29    16    10   ar
    30    27    28    1
    31    27    29    1
@<TRIPOS>MOLECULE
*****
 29 31 0 0 0
SMALL
GASTEIGER

@<TRIPOS>ATOM
      1 C         138.3570  138.1821  161.6700 C.3     1  UNL1        0.1164
      2 N         138.7587  139.0464  162.8282 N.am    1  UNL1       -0.2622
      3 C         139.3823  140.3882  162.5820 C.2     1  UNL1        0.3079
      4 O         139.6042  140.8657  161.1774 O.2     1  UNL1       -0.2523
      5 N         139.7841  141.2524  163.7402 N.am    1  UNL1       -0.2540
      6 C         139.6253  140.9107  165.1921 C.3     1  UNL1        0.1221
      7 C         140.1582  142.0573  165.9992 C.2     1  UNL1       -0.0024
      8 C         140.6464  143.1077  165.0461 C.2     1  UNL1       -0.0047
      9 C         140.4152  142.6103  163.6500 C.3     1  UNL1        0.1217
     10 C         140.1962  142.1391  167.4965 C.ar    1  UNL1        0.0271
     11 C         140.3425  143.4706  168.1714 C.ar    1  UNL1        0.0316
     12 C         140.3805  143.5524  169.6687 C.ar    1  UNL1        0.1403
     13 F         140.5268  144.8840  170.3437 F       1  UNL1       -0.2042
     14 C         140.2723  142.3026  170.4911 C.ar    1  UNL1        0.0319
     15 C         140.1261  140.9710  169.8162 C.ar    1  UNL1        0.0319
     16 C         140.0880  140.8893  168.3189 C.ar    1  UNL1        0.1400
     17 F         139.9418  139.5577  167.6439 F       1  UNL1       -0.2042
     18 C         140.7553  143.3422  162.3856 C.ar    1  UNL1       -0.0001
     19 C         142.0476  143.0582  161.6791 C.ar    1  UNL1       -0.0023
     20 C         142.3878  143.7901  160.4147 C.ar    1  UNL1       -0.0003
     21 C         141.4356  144.8059  159.8570 C.ar    1  UNL1       -0.0000
     22 C         140.1432  145.0900  160.5635 C.ar    1  UNL1       -0.0003
     23 C         139.8031  144.3581  161.8278 C.ar    1  UNL1       -0.0023
     24 C         138.5368  138.5689  164.2328 C.3     1  UNL1        0.0964
     25 C         139.3591  137.4400  164.7798 C.3     1  UNL1        0.0384
     26 C         140.8262  137.3651  164.4762 C.3     1  UNL1        0.0669
     27 N         141.2948  136.7672  163.1827 N.3     1  UNL1       -0.3211
     28 H         141.0658  135.7734  163.1648 H       1  UNL1        0.1189
     29 H         142.3045  136.8850  163.0997 H       1  UNL1        0.1189
@<TRIPOS>BOND
     1     1     2    1
     2     2    24    1
     3    24    25    1
     4    25    26    1
     5    26    27    1
     6     2     3   am
     7     3     4    2
     8     3     5   am
     9     5     6    1
    10     6     7    1
    11     7    10    1
    12    10    11   ar
    13    11    12   ar
    14    12    13    1
    15    12    14   ar
    16    14    15   ar
    17    15    16   ar
    18    16    17    1
    19     7     8    2
    20     8     9    1
    21     9    18    1
    22    18    19   ar
    23    19    20   ar
    24    20    21   ar
    25    21    22   ar
    26    22    23   ar
    27     9     5    1
    28    23    18   ar
    29    16    10   ar
    30    27    28    1
    31    27    29    1
