@<TRIPOS>MOLECULE
*****
 35 38 0 0 0
SMALL
GASTEIGER

@<TRIPOS>ATOM
      1 C         139.6256  144.3404  156.6873 C.2     1  UNL1       -0.0077
      2 C         138.6506  143.2769  156.2772 C.2     1  UNL1       -0.0414
      3 C         137.7897  143.4759  155.0651 C.3     1  UNL1        0.0394
      4 C         136.8146  142.4123  154.6549 C.3     1  UNL1        0.0767
      5 N         136.7006  141.1498  155.4569 N.3     1  UNL1       -0.2683
      6 C         137.5616  140.9509  156.6690 C.3     1  UNL1        0.0767
      7 C         138.5365  142.0144  157.0791 C.3     1  UNL1        0.0394
      8 C         139.7396  145.6029  155.8854 C.ar    1  UNL1        0.0016
      9 C         140.6158  145.6418  154.6684 C.ar    1  UNL1        0.0001
     10 C         140.7298  146.9043  153.8665 C.ar    1  UNL1        0.0023
     11 C         139.9678  148.1279  154.2814 C.ar    1  UNL1        0.0296
     12 C         139.0917  148.0890  155.4984 C.ar    1  UNL1        0.1401
     13 F         138.3296  149.3125  155.9133 F       1  UNL1       -0.2042
     14 C         138.9776  146.8265  156.3004 C.ar    1  UNL1        0.0296
     15 C         142.2085  143.7436  160.3236 C.ar    1  UNL1        0.0536
     16 C         140.8122  144.2707  160.4738 C.ar    1  UNL1        0.0045
     17 C         139.9512  144.4696  159.2617 C.ar    1  UNL1        0.0001
     18 C         140.4866  144.1415  157.8994 C.ar    1  UNL1       -0.0006
     19 C         141.8828  143.6144  157.7493 C.ar    1  UNL1        0.0001
     20 C         142.7438  143.4155  158.9614 C.ar    1  UNL1        0.0045
     21 N         143.2609  142.1690  162.1021 N.am    1  UNL1       -0.2761
     22 C         143.0694  143.5447  161.5357 C.2     1  UNL1        0.2490
     23 O         143.7389  144.7214  162.1815 O.2     1  UNL1       -0.2699
     24 C         145.6004  141.7702  163.1593 C.3     1  UNL1        0.0233
     25 C         144.1218  141.9701  163.3142 C.3     1  UNL1        0.0938
     26 C         142.5914  140.9922  161.4564 C.3     1  UNL1        0.0938
     27 C         143.3890  140.0498  160.6046 C.3     1  UNL1        0.0233
     28 C         135.7256  140.0862  155.0467 C.3     1  UNL1        0.0992
     29 C         134.2964  140.1657  155.4952 C.ar    1  UNL1       -0.0060
     30 C         133.7390  139.1183  156.4130 C.ar    1  UNL1       -0.0006
     31 C         132.3098  139.1977  156.8615 C.ar    1  UNL1        0.0294
     32 C         131.4381  140.3246  156.3922 C.ar    1  UNL1        0.1401
     33 F         130.0089  140.4041  156.8407 F       1  UNL1       -0.2042
     34 C         131.9955  141.3720  155.4744 C.ar    1  UNL1        0.0294
     35 C         133.4246  141.2925  155.0259 C.ar    1  UNL1       -0.0006
@<TRIPOS>BOND
     1    24    25    1
     2    25    21    1
     3    21    26    1
     4    26    27    1
     5    21    22   am
     6    22    23    2
     7    22    15    1
     8    15    16   ar
     9    16    17   ar
    10    17    18   ar
    11    18     1    1
    12     1     2    2
    13     2     3    1
    14     3     4    1
    15     4     5    1
    16     5    28    1
    17    28    29    1
    18    29    30   ar
    19    30    31   ar
    20    31    32   ar
    21    32    33    1
    22    32    34   ar
    23    34    35   ar
    24     5     6    1
    25     6     7    1
    26     1     8    1
    27     8     9   ar
    28     9    10   ar
    29    10    11   ar
    30    11    12   ar
    31    12    13    1
    32    12    14   ar
    33    18    19   ar
    34    19    20   ar
    35    20    15   ar
    36     7     2    1
    37    14     8   ar
    38    35    29   ar
@<TRIPOS>MOLECULE
*****
 35 38 0 0 0
SMALL
GASTEIGER

@<TRIPOS>ATOM
      1 C         139.5348  140.4266  158.4247 C.2     1  UNL1       -0.0077
      2 C         140.4923  139.4433  157.8197 C.2     1  UNL1       -0.0414
      3 C         140.7467  139.4563  156.3415 C.3     1  UNL1        0.0394
      4 C         141.7043  138.4729  155.7365 C.3     1  UNL1        0.0767
      5 N         142.4075  137.4765  156.6097 N.3     1  UNL1       -0.2683
      6 C         142.1531  137.4634  158.0880 C.3     1  UNL1        0.0767
      7 C         141.1956  138.4468  158.6929 C.3     1  UNL1        0.0394
      8 C         138.8316  141.4231  157.5514 C.ar    1  UNL1        0.0016
      9 C         139.5002  142.7205  157.2051 C.ar    1  UNL1        0.0001
     10 C         138.7970  143.7169  156.3319 C.ar    1  UNL1        0.0023
     11 C         137.4252  143.4160  155.8049 C.ar    1  UNL1        0.0296
     12 C         136.7566  142.1187  156.1512 C.ar    1  UNL1        0.1401
     13 F         135.3848  141.8179  155.6243 F       1  UNL1       -0.2042
     14 C         137.4598  141.1222  157.0245 C.ar    1  UNL1        0.0296
     15 C         138.7718  140.3875  162.8593 C.ar    1  UNL1        0.0536
     16 C         140.0260  141.0083  162.3196 C.ar    1  UNL1        0.0045
     17 C         140.2803  141.0214  160.8414 C.ar    1  UNL1        0.0001
     18 C         139.2804  140.4136  159.9029 C.ar    1  UNL1       -0.0006
     19 C         138.0262  139.7927  160.4427 C.ar    1  UNL1        0.0001
     20 C         137.7719  139.7797  161.9209 C.ar    1  UNL1        0.0045
     21 N         138.7500  139.1207  165.1275 N.am    1  UNL1       -0.2761
     22 C         138.5174  140.3744  164.3376 C.2     1  UNL1        0.2490
     23 O         138.0305  141.6151  165.0258 O.2     1  UNL1       -0.2699
     24 C         137.4212  138.2286  167.1742 C.3     1  UNL1        0.0233
     25 C         138.4956  139.1077  166.6058 C.3     1  UNL1        0.0938
     26 C         139.2369  137.8800  164.4393 C.3     1  UNL1        0.0938
     27 C         140.6927  137.5213  164.4813 C.3     1  UNL1        0.0233
     28 C         143.3651  136.4930  156.0048 C.3     1  UNL1        0.0992
     29 C         143.0610  135.0249  156.0505 C.ar    1  UNL1       -0.0060
     30 C         141.8226  134.4945  155.3908 C.ar    1  UNL1       -0.0006
     31 C         141.5185  133.0264  155.4366 C.ar    1  UNL1        0.0294
     32 C         142.4529  132.0886  156.1420 C.ar    1  UNL1        0.1401
     33 F         142.1488  130.6204  156.1878 F       1  UNL1       -0.2042
     34 C         143.6912  132.6189  156.8016 C.ar    1  UNL1        0.0294
     35 C         143.9953  134.0871  156.7559 C.ar    1  UNL1       -0.0006
@<TRIPOS>BOND
     1    24    25    1
     2    25    21    1
     3    21    26    1
     4    26    27    1
     5    21    22   am
     6    22    23    2
     7    22    15    1
     8    15    16   ar
     9    16    17   ar
    10    17    18   ar
    11    18     1    1
    12     1     2    2
    13     2     3    1
    14     3     4    1
    15     4     5    1
    16     5    28    1
    17    28    29    1
    18    29    30   ar
    19    30    31   ar
    20    31    32   ar
    21    32    33    1
    22    32    34   ar
    23    34    35   ar
    24     5     6    1
    25     6     7    1
    26     1     8    1
    27     8     9   ar
    28     9    10   ar
    29    10    11   ar
    30    11    12   ar
    31    12    13    1
    32    12    14   ar
    33    18    19   ar
    34    19    20   ar
    35    20    15   ar
    36     7     2    1
    37    14     8   ar
    38    35    29   ar
@<TRIPOS>MOLECULE
*****
 35 38 0 0 0
SMALL
GASTEIGER

@<TRIPOS>ATOM
      1 C         142.8601  138.6037  157.5857 C.2     1  UNL1       -0.0077
      2 C         143.6899  139.6701  156.9345 C.2     1  UNL1       -0.0414
      3 C         144.1204  139.5176  155.5057 C.3     1  UNL1        0.0394
      4 C         144.9504  140.5840  154.8545 C.3     1  UNL1        0.0767
      5 N         145.3498  141.8029  155.6321 N.3     1  UNL1       -0.2683
      6 C         144.9193  141.9555  157.0609 C.3     1  UNL1        0.0767
      7 C         144.0894  140.8891  157.7121 C.3     1  UNL1        0.0394
      8 C         142.4607  137.3848  156.8081 C.ar    1  UNL1        0.0016
      9 C         141.1365  137.3446  156.1044 C.ar    1  UNL1        0.0001
     10 C         140.7371  136.1257  155.3268 C.ar    1  UNL1        0.0023
     11 C         141.6618  134.9470  155.2528 C.ar    1  UNL1        0.0296
     12 C         142.9859  134.9871  155.9564 C.ar    1  UNL1        0.1401
     13 F         143.9106  133.8084  155.8824 F       1  UNL1       -0.2042
     14 C         143.3854  136.2061  156.7340 C.ar    1  UNL1        0.0296
     15 C         141.5686  139.0613  161.8720 C.ar    1  UNL1        0.0536
     16 C         142.5772  138.0151  161.5002 C.ar    1  UNL1        0.0045
     17 C         143.0076  137.8626  160.0714 C.ar    1  UNL1        0.0001
     18 C         142.4296  138.7563  159.0144 C.ar    1  UNL1       -0.0006
     19 C         141.4210  139.8024  159.3863 C.ar    1  UNL1        0.0001
     20 C         140.9906  139.9550  160.8151 C.ar    1  UNL1        0.0045
     21 N         139.9269  138.4841  163.8012 N.am    1  UNL1       -0.2761
     22 C         141.1381  139.2139  163.3008 C.2     1  UNL1        0.2490
     23 O         141.9189  140.0962  164.2292 O.2     1  UNL1       -0.2699
     24 C         138.3843  139.5798  165.5815 C.3     1  UNL1        0.0233
     25 C         139.4965  138.6366  165.2299 C.3     1  UNL1        0.0938
     26 C         139.1462  137.6018  162.8727 C.3     1  UNL1        0.0938
     27 C         138.0355  138.1791  162.0463 C.3     1  UNL1        0.0233
     28 C         146.1797  142.8694  154.9809 C.3     1  UNL1        0.0992
     29 C         147.6340  142.6250  154.7065 C.ar    1  UNL1       -0.0060
     30 C         148.2632  143.1680  153.4577 C.ar    1  UNL1       -0.0006
     31 C         149.7175  142.9236  153.1833 C.ar    1  UNL1        0.0294
     32 C         150.5425  142.1361  154.1576 C.ar    1  UNL1        0.1401
     33 F         151.9968  141.8917  153.8831 F       1  UNL1       -0.2042
     34 C         149.9133  141.5931  155.4062 C.ar    1  UNL1        0.0294
     35 C         148.4591  141.8375  155.6807 C.ar    1  UNL1       -0.0006
@<TRIPOS>BOND
     1    24    25    1
     2    25    21    1
     3    21    26    1
     4    26    27    1
     5    21    22   am
     6    22    23    2
     7    22    15    1
     8    15    16   ar
     9    16    17   ar
    10    17    18   ar
    11    18     1    1
    12     1     2    2
    13     2     3    1
    14     3     4    1
    15     4     5    1
    16     5    28    1
    17    28    29    1
    18    29    30   ar
    19    30    31   ar
    20    31    32   ar
    21    32    33    1
    22    32    34   ar
    23    34    35   ar
    24     5     6    1
    25     6     7    1
    26     1     8    1
    27     8     9   ar
    28     9    10   ar
    29    10    11   ar
    30    11    12   ar
    31    12    13    1
    32    12    14   ar
    33    18    19   ar
    34    19    20   ar
    35    20    15   ar
    36     7     2    1
    37    14     8   ar
    38    35    29   ar
@<TRIPOS>MOLECULE
*****
 35 38 0 0 0
SMALL
GASTEIGER

@<TRIPOS>ATOM
      1 C         142.5173  137.5926  157.1645 C.2     1  UNL1       -0.0077
      2 C         143.3111  138.6068  156.3956 C.2     1  UNL1       -0.0414
      3 C         144.0882  138.1883  155.1828 C.3     1  UNL1        0.0394
      4 C         144.8820  139.2026  154.4138 C.3     1  UNL1        0.0767
      5 N         144.8986  140.6353  154.8578 N.3     1  UNL1       -0.2683
      6 C         144.1215  141.0538  156.0706 C.3     1  UNL1        0.0767
      7 C         143.3277  140.0396  156.8395 C.3     1  UNL1        0.0394
      8 C         142.5006  136.1599  156.7206 C.ar    1  UNL1        0.0016
      9 C         141.4837  135.6965  155.7200 C.ar    1  UNL1        0.0001
     10 C         141.4670  134.2639  155.2760 C.ar    1  UNL1        0.0023
     11 C         142.4673  133.2945  155.8326 C.ar    1  UNL1        0.0296
     12 C         143.4842  133.7579  156.8332 C.ar    1  UNL1        0.1401
     13 F         144.4845  132.7885  157.3898 F       1  UNL1       -0.2042
     14 C         143.5009  135.1906  157.2771 C.ar    1  UNL1        0.0296
     15 C         140.1859  138.8480  160.8030 C.ar    1  UNL1        0.0536
     16 C         139.5267  138.8402  159.4557 C.ar    1  UNL1        0.0045
     17 C         140.3038  138.4218  158.2428 C.ar    1  UNL1        0.0001
     18 C         141.7401  138.0111  158.3773 C.ar    1  UNL1       -0.0006
     19 C         142.3994  138.0189  159.7246 C.ar    1  UNL1        0.0001
     20 C         141.6223  138.4373  160.9374 C.ar    1  UNL1        0.0045
     21 N         139.3944  140.7059  162.4375 N.am    1  UNL1       -0.2761
     22 C         139.4088  139.2665  162.0158 C.2     1  UNL1        0.2490
     23 O         138.6460  138.2456  162.8069 O.2     1  UNL1       -0.2699
     24 C         137.5201  142.1395  163.5247 C.3     1  UNL1        0.0233
     25 C         138.6173  141.1243  163.6504 C.3     1  UNL1        0.0938
     26 C         140.1572  141.7269  161.6465 C.3     1  UNL1        0.0938
     27 C         141.5594  142.0861  162.0399 C.3     1  UNL1        0.0233
     28 C         145.6925  141.6496  154.0889 C.3     1  UNL1        0.0992
     29 C         147.1871  141.6817  154.2111 C.ar    1  UNL1       -0.0060
     30 C         147.8268  141.7916  155.5635 C.ar    1  UNL1       -0.0006
     31 C         149.3215  141.8236  155.6857 C.ar    1  UNL1        0.0294
     32 C         150.1765  141.7458  154.4556 C.ar    1  UNL1        0.1401
     33 F         151.6711  141.7779  154.5778 F       1  UNL1       -0.2042
     34 C         149.5367  141.6359  153.1033 C.ar    1  UNL1        0.0294
     35 C         148.0421  141.6039  152.9811 C.ar    1  UNL1       -0.0006
@<TRIPOS>BOND
     1    24    25    1
     2    25    21    1
     3    21    26    1
     4    26    27    1
     5    21    22   am
     6    22    23    2
     7    22    15    1
     8    15    16   ar
     9    16    17   ar
    10    17    18   ar
    11    18     1    1
    12     1     2    2
    13     2     3    1
    14     3     4    1
    15     4     5    1
    16     5    28    1
    17    28    29    1
    18    29    30   ar
    19    30    31   ar
    20    31    32   ar
    21    32    33    1
    22    32    34   ar
    23    34    35   ar
    24     5     6    1
    25     6     7    1
    26     1     8    1
    27     8     9   ar
    28     9    10   ar
    29    10    11   ar
    30    11    12   ar
    31    12    13    1
    32    12    14   ar
    33    18    19   ar
    34    19    20   ar
    35    20    15   ar
    36     7     2    1
    37    14     8   ar
    38    35    29   ar
@<TRIPOS>MOLECULE
*****
 35 38 0 0 0
SMALL
GASTEIGER

@<TRIPOS>ATOM
      1 C         141.5233  140.7613  167.6943 C.2     1  UNL1       -0.0077
      2 C         142.3831  139.5918  168.0724 C.2     1  UNL1       -0.0414
      3 C         142.4917  139.1740  169.5089 C.3     1  UNL1        0.0394
      4 C         143.3515  138.0044  169.8869 C.3     1  UNL1        0.0767
      5 N         144.1026  137.2526  168.8284 N.3     1  UNL1       -0.2683
      6 C         143.9940  137.6703  167.3919 C.3     1  UNL1        0.0767
      7 C         143.1343  138.8399  167.0138 C.3     1  UNL1        0.0394
      8 C         140.7722  141.5131  168.7528 C.ar    1  UNL1        0.0016
      9 C         139.7016  140.8236  169.5457 C.ar    1  UNL1        0.0001
     10 C         138.9504  141.5754  170.6042 C.ar    1  UNL1        0.0023
     11 C         139.2698  143.0167  170.8699 C.ar    1  UNL1        0.0296
     12 C         140.3403  143.7062  170.0771 C.ar    1  UNL1        0.1401
     13 F         140.6596  145.1476  170.3429 F       1  UNL1       -0.2042
     14 C         141.0915  142.9544  169.0185 C.ar    1  UNL1        0.0296
     15 C         141.1976  142.0145  163.3846 C.ar    1  UNL1        0.0536
     16 C         140.2561  140.9874  163.9402 C.ar    1  UNL1        0.0045
     17 C         140.3647  140.5697  165.3768 C.ar    1  UNL1        0.0001
     18 C         141.4147  141.1790  166.2577 C.ar    1  UNL1       -0.0006
     19 C         142.3562  142.2061  165.7021 C.ar    1  UNL1        0.0001
     20 C         142.2476  142.6238  164.2656 C.ar    1  UNL1        0.0045
     21 N         140.1702  143.5526  161.5602 N.am    1  UNL1       -0.2761
     22 C         141.0890  142.4322  161.9481 C.2     1  UNL1        0.2490
     23 O         141.8993  141.7296  160.8994 O.2     1  UNL1       -0.2699
     24 C         141.0187  144.9794  159.5616 C.3     1  UNL1        0.0233
     25 C         140.0616  143.9703  160.1236 C.3     1  UNL1        0.0938
     26 C         139.3598  144.2553  162.6089 C.3     1  UNL1        0.0938
     27 C         137.9609  143.8019  162.9045 C.3     1  UNL1        0.0233
     28 C         144.9624  136.0830  169.2065 C.3     1  UNL1        0.0992
     29 C         145.4024  135.9044  170.6293 C.ar    1  UNL1       -0.0060
     30 C         146.6249  136.6143  171.1311 C.ar    1  UNL1       -0.0006
     31 C         147.0648  136.4357  172.5539 C.ar    1  UNL1        0.0294
     32 C         146.2823  135.5473  173.4751 C.ar    1  UNL1        0.1401
     33 F         146.7222  135.3687  174.8979 F       1  UNL1       -0.2042
     34 C         145.0599  134.8375  172.9733 C.ar    1  UNL1        0.0294
     35 C         144.6199  135.0161  171.5504 C.ar    1  UNL1       -0.0006
@<TRIPOS>BOND
     1    24    25    1
     2    25    21    1
     3    21    26    1
     4    26    27    1
     5    21    22   am
     6    22    23    2
     7    22    15    1
     8    15    16   ar
     9    16    17   ar
    10    17    18   ar
    11    18     1    1
    12     1     2    2
    13     2     3    1
    14     3     4    1
    15     4     5    1
    16     5    28    1
    17    28    29    1
    18    29    30   ar
    19    30    31   ar
    20    31    32   ar
    21    32    33    1
    22    32    34   ar
    23    34    35   ar
    24     5     6    1
    25     6     7    1
    26     1     8    1
    27     8     9   ar
    28     9    10   ar
    29    10    11   ar
    30    11    12   ar
    31    12    13    1
    32    12    14   ar
    33    18    19   ar
    34    19    20   ar
    35    20    15   ar
    36     7     2    1
    37    14     8   ar
    38    35    29   ar
@<TRIPOS>MOLECULE
*****
 35 38 0 0 0
SMALL
GASTEIGER

@<TRIPOS>ATOM
      1 C         142.7747  138.6217  157.8134 C.2     1  UNL1       -0.0077
      2 C         143.5823  139.7040  157.1605 C.2     1  UNL1       -0.0414
      3 C         143.8316  139.6654  155.6819 C.3     1  UNL1        0.0394
      4 C         144.6393  140.7477  155.0289 C.3     1  UNL1        0.0767
      5 N         145.1975  141.8687  155.8546 N.3     1  UNL1       -0.2683
      6 C         144.9482  141.9073  157.3332 C.3     1  UNL1        0.0767
      7 C         144.1406  140.8250  157.9862 C.3     1  UNL1        0.0394
      8 C         142.2164  137.5008  156.9878 C.ar    1  UNL1        0.0016
      9 C         142.9807  136.2174  156.8508 C.ar    1  UNL1        0.0001
     10 C         142.4224  135.0964  156.0251 C.ar    1  UNL1        0.0023
     11 C         141.0998  135.2589  155.3364 C.ar    1  UNL1        0.0296
     12 C         140.3355  136.5422  155.4733 C.ar    1  UNL1        0.1401
     13 F         139.0130  136.7046  154.7845 F       1  UNL1       -0.2042
     14 C         140.8938  137.6632  156.2990 C.ar    1  UNL1        0.0296
     15 C         142.0267  138.7377  162.2493 C.ar    1  UNL1        0.0536
     16 C         143.1467  137.9055  161.6991 C.ar    1  UNL1        0.0045
     17 C         143.3961  137.8668  160.2205 C.ar    1  UNL1        0.0001
     18 C         142.5253  138.6604  159.2921 C.ar    1  UNL1       -0.0006
     19 C         141.4052  139.4926  159.8423 C.ar    1  UNL1        0.0001
     20 C         141.1559  139.5312  161.3209 C.ar    1  UNL1        0.0045
     21 N         142.5780  139.6976  164.5997 N.am    1  UNL1       -0.2761
     22 C         141.7773  138.7763  163.7280 C.2     1  UNL1        0.2490
     23 O         140.7273  137.8937  164.3348 O.2     1  UNL1       -0.2699
     24 C         143.1275  138.8596  166.9968 C.3     1  UNL1        0.0233
     25 C         142.3287  139.7363  166.0784 C.3     1  UNL1        0.0938
     26 C         143.6281  140.5803  163.9929 C.3     1  UNL1        0.0938
     27 C         145.0670  140.1570  164.0131 C.3     1  UNL1        0.0233
     28 C         146.0052  142.9510  155.2017 C.3     1  UNL1        0.0992
     29 C         147.4356  142.6976  154.8279 C.ar    1  UNL1       -0.0060
     30 C         147.9973  143.2870  153.5681 C.ar    1  UNL1       -0.0006
     31 C         149.4277  143.0335  153.1943 C.ar    1  UNL1        0.0294
     32 C         150.2964  142.1907  154.0804 C.ar    1  UNL1        0.1401
     33 F         151.7268  141.9372  153.7066 F       1  UNL1       -0.2042
     34 C         149.7347  141.6013  155.3402 C.ar    1  UNL1        0.0294
     35 C         148.3043  141.8548  155.7139 C.ar    1  UNL1       -0.0006
@<TRIPOS>BOND
     1    24    25    1
     2    25    21    1
     3    21    26    1
     4    26    27    1
     5    21    22   am
     6    22    23    2
     7    22    15    1
     8    15    16   ar
     9    16    17   ar
    10    17    18   ar
    11    18     1    1
    12     1     2    2
    13     2     3    1
    14     3     4    1
    15     4     5    1
    16     5    28    1
    17    28    29    1
    18    29    30   ar
    19    30    31   ar
    20    31    32   ar
    21    32    33    1
    22    32    34   ar
    23    34    35   ar
    24     5     6    1
    25     6     7    1
    26     1     8    1
    27     8     9   ar
    28     9    10   ar
    29    10    11   ar
    30    11    12   ar
    31    12    13    1
    32    12    14   ar
    33    18    19   ar
    34    19    20   ar
    35    20    15   ar
    36     7     2    1
    37    14     8   ar
    38    35    29   ar
@<TRIPOS>MOLECULE
*****
 35 38 0 0 0
SMALL
GASTEIGER

@<TRIPOS>ATOM
      1 C         139.5477  140.4165  158.3819 C.2     1  UNL1       -0.0077
      2 C         140.5534  139.4775  157.7847 C.2     1  UNL1       -0.0414
      3 C         140.8148  139.4986  156.3078 C.3     1  UNL1        0.0394
      4 C         141.8205  138.5595  155.7106 C.3     1  UNL1        0.0767
      5 N         142.5649  137.5993  156.5902 N.3     1  UNL1       -0.2683
      6 C         142.3036  137.5782  158.0672 C.3     1  UNL1        0.0767
      7 C         141.2979  138.5172  158.6644 C.3     1  UNL1        0.0394
      8 C         138.8033  141.3767  157.5022 C.ar    1  UNL1        0.0016
      9 C         137.4826  140.9823  156.9104 C.ar    1  UNL1        0.0001
     10 C         136.7382  141.9425  156.0307 C.ar    1  UNL1        0.0023
     11 C         137.3145  143.2971  155.7428 C.ar    1  UNL1        0.0296
     12 C         138.6352  143.6915  156.3345 C.ar    1  UNL1        0.1401
     13 F         139.2115  145.0461  156.0466 F       1  UNL1       -0.2042
     14 C         139.3796  142.7313  157.2143 C.ar    1  UNL1        0.0296
     15 C         138.7637  140.3530  162.8126 C.ar    1  UNL1        0.0536
     16 C         137.7778  139.7328  161.8675 C.ar    1  UNL1        0.0045
     17 C         138.0391  139.7539  160.3906 C.ar    1  UNL1        0.0001
     18 C         139.2864  140.3953  159.8588 C.ar    1  UNL1       -0.0006
     19 C         140.2723  141.0156  160.8039 C.ar    1  UNL1        0.0001
     20 C         140.0109  140.9944  162.2808 C.ar    1  UNL1        0.0045
     21 N         138.7303  139.0736  165.0735 N.am    1  UNL1       -0.2761
     22 C         138.5023  140.3318  164.2895 C.2     1  UNL1        0.2490
     23 O         138.0131  141.5689  164.9824 O.2     1  UNL1       -0.2699
     24 C         137.4133  138.1468  167.1124 C.3     1  UNL1        0.0233
     25 C         138.4689  139.0524  166.5505 C.3     1  UNL1        0.0938
     26 C         139.2195  137.8364  164.3807 C.3     1  UNL1        0.0938
     27 C         140.6815  137.5008  164.3885 C.3     1  UNL1        0.0233
     28 C         143.5707  136.6602  155.9930 C.3     1  UNL1        0.0992
     29 C         143.2659  135.1944  155.9010 C.ar    1  UNL1       -0.0060
     30 C         143.6226  134.2815  157.0365 C.ar    1  UNL1       -0.0006
     31 C         143.3178  132.8156  156.9445 C.ar    1  UNL1        0.0294
     32 C         142.6564  132.2628  155.7169 C.ar    1  UNL1        0.1401
     33 F         142.3516  130.7969  155.6248 F       1  UNL1       -0.2042
     34 C         142.2997  133.1757  154.5814 C.ar    1  UNL1        0.0294
     35 C         142.6045  134.6415  154.6735 C.ar    1  UNL1       -0.0006
@<TRIPOS>BOND
     1    24    25    1
     2    25    21    1
     3    21    26    1
     4    26    27    1
     5    21    22   am
     6    22    23    2
     7    22    15    1
     8    15    16   ar
     9    16    17   ar
    10    17    18   ar
    11    18     1    1
    12     1     2    2
    13     2     3    1
    14     3     4    1
    15     4     5    1
    16     5    28    1
    17    28    29    1
    18    29    30   ar
    19    30    31   ar
    20    31    32   ar
    21    32    33    1
    22    32    34   ar
    23    34    35   ar
    24     5     6    1
    25     6     7    1
    26     1     8    1
    27     8     9   ar
    28     9    10   ar
    29    10    11   ar
    30    11    12   ar
    31    12    13    1
    32    12    14   ar
    33    18    19   ar
    34    19    20   ar
    35    20    15   ar
    36     7     2    1
    37    14     8   ar
    38    35    29   ar
@<TRIPOS>MOLECULE
*****
 35 38 0 0 0
SMALL
GASTEIGER

@<TRIPOS>ATOM
      1 C         143.1630  141.3066  157.0287 C.2     1  UNL1       -0.0077
      2 C         142.7412  139.9036  156.7069 C.2     1  UNL1       -0.0414
      3 C         143.4902  139.1133  155.6752 C.3     1  UNL1        0.0394
      4 C         143.0683  137.7102  155.3534 C.3     1  UNL1        0.0767
      5 N         141.8976  137.0975  156.0633 N.3     1  UNL1       -0.2683
      6 C         141.1486  137.8879  157.0950 C.3     1  UNL1        0.0767
      7 C         141.5704  139.2909  157.4168 C.3     1  UNL1        0.0394
      8 C         144.3337  141.9193  156.3189 C.ar    1  UNL1        0.0016
      9 C         144.1350  142.6096  155.0020 C.ar    1  UNL1        0.0001
     10 C         145.3057  143.2223  154.2921 C.ar    1  UNL1        0.0023
     11 C         146.6752  143.1446  154.8990 C.ar    1  UNL1        0.0296
     12 C         146.8740  142.4544  156.2158 C.ar    1  UNL1        0.1401
     13 F         148.2436  142.3768  156.8227 F       1  UNL1       -0.2042
     14 C         145.7033  141.8417  156.9258 C.ar    1  UNL1        0.0296
     15 C         140.9161  143.6777  160.1238 C.ar    1  UNL1        0.0536
     16 C         142.1527  142.9219  160.5102 C.ar    1  UNL1        0.0045
     17 C         142.9017  142.1315  159.4785 C.ar    1  UNL1        0.0001
     18 C         142.4140  142.0970  158.0604 C.ar    1  UNL1       -0.0006
     19 C         141.1773  142.8528  157.6741 C.ar    1  UNL1        0.0001
     20 C         140.4284  143.6432  158.7058 C.ar    1  UNL1        0.0045
     21 N         139.1283  143.7980  162.0051 N.am    1  UNL1       -0.2761
     22 C         140.1671  144.4681  161.1555 C.2     1  UNL1        0.2490
     23 O         140.4570  145.9285  161.3376 O.2     1  UNL1       -0.2699
     24 C         138.9673  144.7862  164.4025 C.3     1  UNL1        0.0233
     25 C         138.3793  144.5884  163.0368 C.3     1  UNL1        0.0938
     26 C         138.8384  142.3376  161.8230 C.3     1  UNL1        0.0938
     27 C         137.6350  141.7247  162.4760 C.3     1  UNL1        0.0233
     28 C         141.4757  135.6944  155.7415 C.3     1  UNL1        0.0992
     29 C         142.4480  134.5635  155.9019 C.ar    1  UNL1       -0.0060
     30 C         143.3004  134.4762  157.1332 C.ar    1  UNL1       -0.0006
     31 C         144.2726  133.3453  157.2936 C.ar    1  UNL1        0.0294
     32 C         144.3925  132.3017  156.2228 C.ar    1  UNL1        0.1401
     33 F         145.3648  131.1708  156.3832 F       1  UNL1       -0.2042
     34 C         143.5402  132.3890  154.9916 C.ar    1  UNL1        0.0294
     35 C         142.5679  133.5200  154.8312 C.ar    1  UNL1       -0.0006
@<TRIPOS>BOND
     1    24    25    1
     2    25    21    1
     3    21    26    1
     4    26    27    1
     5    21    22   am
     6    22    23    2
     7    22    15    1
     8    15    16   ar
     9    16    17   ar
    10    17    18   ar
    11    18     1    1
    12     1     2    2
    13     2     3    1
    14     3     4    1
    15     4     5    1
    16     5    28    1
    17    28    29    1
    18    29    30   ar
    19    30    31   ar
    20    31    32   ar
    21    32    33    1
    22    32    34   ar
    23    34    35   ar
    24     5     6    1
    25     6     7    1
    26     1     8    1
    27     8     9   ar
    28     9    10   ar
    29    10    11   ar
    30    11    12   ar
    31    12    13    1
    32    12    14   ar
    33    18    19   ar
    34    19    20   ar
    35    20    15   ar
    36     7     2    1
    37    14     8   ar
    38    35    29   ar
@<TRIPOS>MOLECULE
*****
 35 38 0 0 0
SMALL
GASTEIGER

@<TRIPOS>ATOM
      1 C         141.0960  139.8745  158.5095 C.2     1  UNL1       -0.0077
      2 C         141.2057  139.6680  159.9912 C.2     1  UNL1       -0.0414
      3 C         140.9130  140.8007  160.9300 C.3     1  UNL1        0.0394
      4 C         141.0228  140.5941  162.4117 C.3     1  UNL1        0.0767
      5 N         141.4252  139.2550  162.9545 N.3     1  UNL1       -0.2683
      6 C         141.7179  138.1223  162.0156 C.3     1  UNL1        0.0767
      7 C         141.6081  138.3288  160.5340 C.3     1  UNL1        0.0394
      8 C         140.6935  141.2137  157.9668 C.ar    1  UNL1        0.0016
      9 C         141.7334  142.2663  157.7201 C.ar    1  UNL1        0.0001
     10 C         141.3310  143.6055  157.1773 C.ar    1  UNL1        0.0023
     11 C         139.8887  143.8921  156.8812 C.ar    1  UNL1        0.0296
     12 C         138.8488  142.8396  157.1278 C.ar    1  UNL1        0.1401
     13 F         137.4066  143.1262  156.8317 F       1  UNL1       -0.2042
     14 C         139.2513  141.5003  157.6706 C.ar    1  UNL1        0.0296
     15 C         141.9740  136.4766  155.6930 C.ar    1  UNL1        0.0536
     16 C         143.0892  137.3521  156.1827 C.ar    1  UNL1        0.0045
     17 C         142.7965  138.4847  157.1216 C.ar    1  UNL1        0.0001
     18 C         141.3886  138.7419  157.5707 C.ar    1  UNL1       -0.0006
     19 C         140.2735  137.8664  157.0810 C.ar    1  UNL1        0.0001
     20 C         140.5662  136.7338  156.1421 C.ar    1  UNL1        0.0045
     21 N         142.6379  133.9961  155.2977 N.am    1  UNL1       -0.2761
     22 C         142.2667  135.3439  154.7541 C.2     1  UNL1        0.2490
     23 O         142.1882  135.5591  153.2718 O.2     1  UNL1       -0.2699
     24 C         141.8075  132.0319  153.8136 C.3     1  UNL1        0.0233
     25 C         142.9306  132.8634  154.3588 C.3     1  UNL1        0.0938
     26 C         142.7165  133.7808  156.7801 C.3     1  UNL1        0.0938
     27 C         144.0529  133.6645  157.4513 C.3     1  UNL1        0.0233
     28 C         141.5350  139.0484  164.4362 C.3     1  UNL1        0.0992
     29 C         140.3055  138.7634  165.2468 C.ar    1  UNL1       -0.0060
     30 C         139.4778  137.5476  164.9518 C.ar    1  UNL1       -0.0006
     31 C         138.2483  137.2625  165.7624 C.ar    1  UNL1        0.0294
     32 C         137.8465  138.1933  166.8680 C.ar    1  UNL1        0.1401
     33 F         136.6169  137.9083  167.6786 F       1  UNL1       -0.2042
     34 C         138.6741  139.4090  167.1630 C.ar    1  UNL1        0.0294
     35 C         139.9036  139.6940  166.3524 C.ar    1  UNL1       -0.0006
@<TRIPOS>BOND
     1    24    25    1
     2    25    21    1
     3    21    26    1
     4    26    27    1
     5    21    22   am
     6    22    23    2
     7    22    15    1
     8    15    16   ar
     9    16    17   ar
    10    17    18   ar
    11    18     1    1
    12     1     2    2
    13     2     3    1
    14     3     4    1
    15     4     5    1
    16     5    28    1
    17    28    29    1
    18    29    30   ar
    19    30    31   ar
    20    31    32   ar
    21    32    33    1
    22    32    34   ar
    23    34    35   ar
    24     5     6    1
    25     6     7    1
    26     1     8    1
    27     8     9   ar
    28     9    10   ar
    29    10    11   ar
    30    11    12   ar
    31    12    13    1
    32    12    14   ar
    33    18    19   ar
    34    19    20   ar
    35    20    15   ar
    36     7     2    1
    37    14     8   ar
    38    35    29   ar
