@<TRIPOS>MOLECULE
*****
 33 38 0 0 0
SMALL
GASTEIGER

@<TRIPOS>ATOM
      1 C         140.5132  143.7043  163.2644 C.ar    1  UNL1        0.0045
      2 C         141.0579  142.3290  163.0161 C.ar    1  UNL1        0.0002
      3 C         141.3236  141.4080  164.1697 C.ar    1  UNL1        0.0018
      4 C         141.0448  141.8623  165.5718 C.ar    1  UNL1        0.0259
      5 C         140.5001  143.2377  165.8202 C.ar    1  UNL1        0.0812
      6 C         140.2343  144.1587  164.6665 C.ar    1  UNL1        0.0192
      7 N         140.3247  143.4064  167.3003 N.2     1  UNL1       -0.2485
      8 C         140.7609  142.1353  167.9667 C.2     1  UNL1        0.0825
      9 C         140.8103  141.7236  169.4082 C.3     1  UNL1        0.1853
     10 C         141.3048  140.3576  169.7815 C.2     1  UNL1        0.2236
     11 N         141.7499  139.4032  168.7132 N.2     1  UNL1       -0.0404
     12 C         141.7004  139.8150  167.2717 C.2     1  UNL1        0.3219
     13 C         141.2059  141.1810  166.8985 C.2     1  UNL1        0.0979
     14 C         140.3219  145.7181  158.3870 C.3     1  UNL1        0.1538
     15 N         140.1595  145.5510  159.8688 N.ar    1  UNL1       -0.2473
     16 C         140.6107  144.3712  160.6777 C.ar    1  UNL1        0.0967
     17 C         140.2474  144.6254  162.1107 C.ar    1  UNL1        0.0397
     18 C         139.5716  145.9624  162.1874 C.ar    1  UNL1        0.1216
     19 N         139.5173  146.5344  160.8018 N.ar    1  UNL1       -0.1676
     20 C         140.3652  142.6780  170.4765 C.2     1  UNL1        0.2327
     21 N         140.0079  144.0903  170.1192 N.am    1  UNL1       -0.3281
     22 O         140.2774  142.2199  171.9022 O.2     1  UNL1       -0.2744
     23 H         140.0655  144.3909  169.1834 H       1  UNL1        0.1450
     24 H         139.7158  144.7166  170.8203 H       1  UNL1        0.1450
     25 N         142.1455  138.8607  166.2035 N.pl3   1  UNL1       -0.2222
     26 H         143.0766  138.5415  166.1854 H       1  UNL1        0.2921
     27 C         141.1719  138.3927  165.1628 C.3     1  UNL1        0.1564
     28 C         139.7194  138.2449  165.5071 C.3     1  UNL1        0.0426
     29 C         138.4156  138.8554  165.9284 C.3     1  UNL1        0.0041
     30 C         138.5075  137.3785  165.6821 C.3     1  UNL1        0.0041
     31 C         141.6507  138.0725  163.7778 C.3     1  UNL1        0.0426
     32 C         142.7301  138.1041  162.7367 C.3     1  UNL1        0.0041
     33 C         141.4006  137.4862  162.4200 C.3     1  UNL1        0.0041
@<TRIPOS>BOND
     1    14    15    1
     2    15    16   ar
     3    16    17   ar
     4    17     1    1
     5     1     2   ar
     6     2     3   ar
     7     3     4   ar
     8     4     5   ar
     9     5     6   ar
    10     5     7    1
    11     7     8    2
    12     8     9    1
    13     9    20    1
    14    20    21   am
    15    20    22    2
    16     9    10    1
    17    10    11    2
    18    11    12    1
    19    12    25    1
    20    25    27    1
    21    27    28    1
    22    28    29    1
    23    29    30    1
    24    27    31    1
    25    31    32    1
    26    32    33    1
    27    12    13    2
    28    17    18   ar
    29    18    19   ar
    30    19    15   ar
    31     6     1   ar
    32    13     8    1
    33    13     4    1
    34    30    28    1
    35    33    31    1
    36    21    23    1
    37    21    24    1
    38    25    26    1
@<TRIPOS>MOLECULE
*****
 33 38 0 0 0
SMALL
GASTEIGER

@<TRIPOS>ATOM
      1 C         140.5201  143.7056  163.2759 C.ar    1  UNL1        0.0045
      2 C         141.0813  142.3362  163.0315 C.ar    1  UNL1        0.0002
      3 C         141.3547  141.4205  164.1877 C.ar    1  UNL1        0.0018
      4 C         141.0669  141.8742  165.5881 C.ar    1  UNL1        0.0259
      5 C         140.5057  143.2436  165.8325 C.ar    1  UNL1        0.0812
      6 C         140.2323  144.1593  164.6764 C.ar    1  UNL1        0.0192
      7 N         140.3244  143.4130  167.3118 N.2     1  UNL1       -0.2485
      8 C         140.7735  142.1483  167.9818 C.2     1  UNL1        0.0825
      9 C         140.8238  141.7399  169.4241 C.3     1  UNL1        0.1853
     10 C         141.3332  140.3803  169.8013 C.2     1  UNL1        0.2236
     11 N         141.7921  139.4293  168.7360 N.2     1  UNL1       -0.0404
     12 C         141.7417  139.8377  167.2936 C.2     1  UNL1        0.3219
     13 C         141.2324  141.1972  166.9165 C.2     1  UNL1        0.0979
     14 C         140.2793  145.6885  158.3880 C.3     1  UNL1        0.1538
     15 N         140.1360  145.5328  159.8730 N.ar    1  UNL1       -0.2473
     16 C         140.5876  144.3543  160.6836 C.ar    1  UNL1        0.0967
     17 C         140.2467  144.6214  162.1197 C.ar    1  UNL1        0.0397
     18 C         139.5844  145.9650  162.1967 C.ar    1  UNL1        0.1216
     19 N         139.5160  146.5283  160.8082 N.ar    1  UNL1       -0.1676
     20 C         140.3649  142.6910  170.4895 C.2     1  UNL1        0.2327
     21 N         140.0234  144.1076  170.1337 N.am    1  UNL1       -0.3281
     22 O         140.2475  142.2254  171.9106 O.2     1  UNL1       -0.2744
     23 H         140.1004  144.4132  169.2010 H       1  UNL1        0.1450
     24 H         139.7222  144.7318  170.8329 H       1  UNL1        0.1450
     25 N         142.2006  138.8867  166.2284 N.pl3   1  UNL1       -0.2222
     26 H         143.1351  138.5774  166.2140 H       1  UNL1        0.2921
     27 C         141.2356  138.4068  165.1850 C.3     1  UNL1        0.1564
     28 C         141.7224  138.0910  163.8018 C.3     1  UNL1        0.0426
     29 C         142.7969  138.1535  162.7569 C.3     1  UNL1        0.0041
     30 C         141.4911  137.4815  162.4508 C.3     1  UNL1        0.0041
     31 C         139.7839  138.2427  165.5248 C.3     1  UNL1        0.0426
     32 C         138.5360  138.7596  166.1773 C.3     1  UNL1        0.0041
     33 C         138.5172  137.4418  165.4610 C.3     1  UNL1        0.0041
@<TRIPOS>BOND
     1    14    15    1
     2    15    16   ar
     3    16    17   ar
     4    17     1    1
     5     1     2   ar
     6     2     3   ar
     7     3     4   ar
     8     4     5   ar
     9     5     6   ar
    10     5     7    1
    11     7     8    2
    12     8     9    1
    13     9    20    1
    14    20    21   am
    15    20    22    2
    16     9    10    1
    17    10    11    2
    18    11    12    1
    19    12    25    1
    20    25    27    1
    21    27    28    1
    22    28    29    1
    23    29    30    1
    24    27    31    1
    25    31    32    1
    26    32    33    1
    27    12    13    2
    28    17    18   ar
    29    18    19   ar
    30    19    15   ar
    31     6     1   ar
    32    13     8    1
    33    13     4    1
    34    30    28    1
    35    33    31    1
    36    21    23    1
    37    21    24    1
    38    25    26    1
@<TRIPOS>MOLECULE
*****
 33 38 0 0 0
SMALL
GASTEIGER

@<TRIPOS>ATOM
      1 C         141.8382  139.2969  158.9763 C.ar    1  UNL1        0.0045
      2 C         141.0371  138.4311  159.9028 C.ar    1  UNL1        0.0002
      3 C         140.2616  139.0520  161.0267 C.ar    1  UNL1        0.0018
      4 C         140.2873  140.5388  161.2239 C.ar    1  UNL1        0.0259
      5 C         141.0884  141.4046  160.2974 C.ar    1  UNL1        0.0812
      6 C         141.8639  140.7836  159.1735 C.ar    1  UNL1        0.0192
      7 N         140.9243  142.8294  160.7365 N.2     1  UNL1       -0.2485
      8 C         140.0217  142.8443  161.9345 C.2     1  UNL1        0.0825
      9 C         139.5074  143.9640  162.7898 C.3     1  UNL1        0.1853
     10 C         138.5995  143.6680  163.9466 C.2     1  UNL1        0.2236
     11 N         138.2058  142.2523  164.2479 N.2     1  UNL1       -0.0404
     12 C         138.7201  141.1326  163.3924 C.2     1  UNL1        0.3219
     13 C         139.6280  141.4286  162.2357 C.2     1  UNL1        0.0979
     14 C         143.8611  135.7482  155.6302 C.3     1  UNL1        0.1538
     15 N         143.5435  137.0447  156.3144 N.ar    1  UNL1       -0.2473
     16 C         142.6431  137.2178  157.5015 C.ar    1  UNL1        0.0967
     17 C         142.6137  138.6759  157.8523 C.ar    1  UNL1        0.0397
     18 C         143.4958  139.4040  156.8820 C.ar    1  UNL1        0.1216
     19 N         144.0705  138.3960  155.9314 N.ar    1  UNL1       -0.1676
     20 C         139.9011  145.3798  162.4885 C.2     1  UNL1        0.2327
     21 N         141.1317  145.9655  163.1150 N.am    1  UNL1       -0.3281
     22 O         139.0642  146.2097  161.5608 O.2     1  UNL1       -0.2744
     23 H         141.6810  145.4208  163.7240 H       1  UNL1        0.1450
     24 H         141.3901  146.8947  162.9173 H       1  UNL1        0.1450
     25 N         138.3264  139.7169  163.6937 N.pl3   1  UNL1       -0.2222
     26 H         137.6046  139.2869  163.1806 H       1  UNL1        0.2921
     27 C         139.0325  138.9564  164.7768 C.3     1  UNL1        0.1564
     28 C         140.3306  138.2645  164.4833 C.3     1  UNL1        0.0426
     29 C         141.0857  137.0234  164.1095 C.3     1  UNL1        0.0041
     30 C         141.8240  138.3070  164.3489 C.3     1  UNL1        0.0041
     31 C         138.4405  138.8878  166.1533 C.3     1  UNL1        0.0426
     32 C         137.4751  138.2732  167.1231 C.3     1  UNL1        0.0041
     33 C         138.3805  139.3834  167.5678 C.3     1  UNL1        0.0041
@<TRIPOS>BOND
     1    14    15    1
     2    15    16   ar
     3    16    17   ar
     4    17     1    1
     5     1     2   ar
     6     2     3   ar
     7     3     4   ar
     8     4     5   ar
     9     5     6   ar
    10     5     7    1
    11     7     8    2
    12     8     9    1
    13     9    20    1
    14    20    21   am
    15    20    22    2
    16     9    10    1
    17    10    11    2
    18    11    12    1
    19    12    25    1
    20    25    27    1
    21    27    28    1
    22    28    29    1
    23    29    30    1
    24    27    31    1
    25    31    32    1
    26    32    33    1
    27    12    13    2
    28    17    18   ar
    29    18    19   ar
    30    19    15   ar
    31     6     1   ar
    32    13     8    1
    33    13     4    1
    34    30    28    1
    35    33    31    1
    36    21    23    1
    37    21    24    1
    38    25    26    1
@<TRIPOS>MOLECULE
*****
 33 38 0 0 0
SMALL
GASTEIGER

@<TRIPOS>ATOM
      1 C         140.9296  138.9272  160.6440 C.ar    1  UNL1        0.0045
      2 C         141.6811  140.1161  161.1652 C.ar    1  UNL1        0.0002
      3 C         141.4842  140.5654  162.5827 C.ar    1  UNL1        0.0018
      4 C         140.5357  139.8259  163.4790 C.ar    1  UNL1        0.0259
      5 C         139.7842  138.6369  162.9578 C.ar    1  UNL1        0.0812
      6 C         139.9811  138.1876  161.5404 C.ar    1  UNL1        0.0192
      7 N         138.9230  138.1102  164.0673 N.2     1  UNL1       -0.2485
      8 C         139.1423  138.9736  165.2742 C.2     1  UNL1        0.0825
      9 C         138.5632  138.9312  166.6572 C.3     1  UNL1        0.1853
     10 C         138.9808  139.9492  167.6766 C.2     1  UNL1        0.2236
     11 N         139.9775  141.0095  167.3131 N.2     1  UNL1       -0.0404
     12 C         140.5566  141.0519  165.9300 C.2     1  UNL1        0.3219
     13 C         140.1390  140.0339  164.9106 C.2     1  UNL1        0.0979
     14 C         143.1749  137.1805  156.1956 C.3     1  UNL1        0.1538
     15 N         142.1586  137.6750  157.1818 N.ar    1  UNL1       -0.2473
     16 C         142.4218  138.0335  158.6143 C.ar    1  UNL1        0.0967
     17 C         141.1265  138.4778  159.2265 C.ar    1  UNL1        0.0397
     18 C         140.0627  138.3938  158.1723 C.ar    1  UNL1        0.1216
     19 N         140.7006  137.8976  156.9086 N.ar    1  UNL1       -0.1676
     20 C         137.5664  137.8708  167.0208 C.2     1  UNL1        0.2327
     21 N         137.5651  136.5606  166.2904 N.am    1  UNL1       -0.3281
     22 O         136.5711  138.1206  168.1148 O.2     1  UNL1       -0.2744
     23 H         138.2184  136.3966  165.5724 H       1  UNL1        0.1450
     24 H         136.9109  135.8647  166.5291 H       1  UNL1        0.1450
     25 N         141.5533  142.1122  165.5664 N.pl3   1  UNL1       -0.2222
     26 H         142.5001  142.0031  165.8131 H       1  UNL1        0.2921
     27 C         141.1074  143.3388  164.8271 C.3     1  UNL1        0.1564
     28 C         139.6880  143.8098  164.9429 C.3     1  UNL1        0.0426
     29 C         138.6887  144.8148  165.4345 C.3     1  UNL1        0.0041
     30 C         138.2287  143.6206  164.6518 C.3     1  UNL1        0.0041
     31 C         142.0809  144.0945  163.9719 C.3     1  UNL1        0.0426
     32 C         142.6832  144.3753  162.6272 C.3     1  UNL1        0.0041
     33 C         143.1646  145.1225  163.8354 C.3     1  UNL1        0.0041
@<TRIPOS>BOND
     1    14    15    1
     2    15    16   ar
     3    16    17   ar
     4    17     1    1
     5     1     2   ar
     6     2     3   ar
     7     3     4   ar
     8     4     5   ar
     9     5     6   ar
    10     5     7    1
    11     7     8    2
    12     8     9    1
    13     9    20    1
    14    20    21   am
    15    20    22    2
    16     9    10    1
    17    10    11    2
    18    11    12    1
    19    12    25    1
    20    25    27    1
    21    27    28    1
    22    28    29    1
    23    29    30    1
    24    27    31    1
    25    31    32    1
    26    32    33    1
    27    12    13    2
    28    17    18   ar
    29    18    19   ar
    30    19    15   ar
    31     6     1   ar
    32    13     8    1
    33    13     4    1
    34    30    28    1
    35    33    31    1
    36    21    23    1
    37    21    24    1
    38    25    26    1
@<TRIPOS>MOLECULE
*****
 33 38 0 0 0
SMALL
GASTEIGER

@<TRIPOS>ATOM
      1 C         140.3481  139.0367  159.2537 C.ar    1  UNL1        0.0045
      2 C         139.6071  138.3697  160.3743 C.ar    1  UNL1        0.0002
      3 C         139.1189  139.1806  161.5380 C.ar    1  UNL1        0.0018
      4 C         139.3718  140.6584  161.5811 C.ar    1  UNL1        0.0259
      5 C         140.1129  141.3255  160.4605 C.ar    1  UNL1        0.0812
      6 C         140.6011  140.5146  159.2968 C.ar    1  UNL1        0.0192
      7 N         140.2127  142.7883  160.7768 N.2     1  UNL1       -0.2485
      8 C         139.5333  143.0254  162.0930 C.2     1  UNL1        0.0825
      9 C         139.3208  144.2698  162.9030 C.3     1  UNL1        0.1853
     10 C         138.5886  144.1979  164.2101 C.2     1  UNL1        0.2236
     11 N         138.0688  142.8816  164.7072 N.2     1  UNL1       -0.0404
     12 C         138.2814  141.6371  163.8971 C.2     1  UNL1        0.3219
     13 C         139.0136  141.7091  162.5901 C.2     1  UNL1        0.0979
     14 C         143.5113  136.4422  155.9154 C.3     1  UNL1        0.1538
     15 N         142.2903  137.0333  156.5555 N.ar    1  UNL1       -0.2473
     16 C         142.2603  137.8386  157.8207 C.ar    1  UNL1        0.0967
     17 C         140.8363  138.2259  158.0900 C.ar    1  UNL1        0.0397
     18 C         139.9864  137.6600  156.9912 C.ar    1  UNL1        0.1216
     19 N         140.8849  136.9230  156.0429 N.ar    1  UNL1       -0.1676
     20 C         139.8406  145.5862  162.4059 C.2     1  UNL1        0.2327
     21 N         141.0973  146.1639  162.9864 N.am    1  UNL1       -0.3281
     22 O         139.1035  146.3249  161.3283 O.2     1  UNL1       -0.2744
     23 H         141.5810  145.6791  163.6936 H       1  UNL1        0.1450
     24 H         141.4384  147.0279  162.6601 H       1  UNL1        0.1450
     25 N         137.7617  140.3208  164.3942 N.pl3   1  UNL1       -0.2222
     26 H         136.8632  140.0156  164.1320 H       1  UNL1        0.2921
     27 C         138.6109  139.4694  165.2909 C.3     1  UNL1        0.1564
     28 C         137.9947  138.7724  166.4674 C.3     1  UNL1        0.0426
     29 C         137.3116  137.5733  167.0554 C.3     1  UNL1        0.0041
     30 C         137.6103  138.7641  167.9173 C.3     1  UNL1        0.0041
     31 C         140.0765  139.3151  165.0109 C.3     1  UNL1        0.0426
     32 C         141.4629  139.8875  164.9929 C.3     1  UNL1        0.0041
     33 C         141.2285  138.4755  164.5442 C.3     1  UNL1        0.0041
@<TRIPOS>BOND
     1    14    15    1
     2    15    16   ar
     3    16    17   ar
     4    17     1    1
     5     1     2   ar
     6     2     3   ar
     7     3     4   ar
     8     4     5   ar
     9     5     6   ar
    10     5     7    1
    11     7     8    2
    12     8     9    1
    13     9    20    1
    14    20    21   am
    15    20    22    2
    16     9    10    1
    17    10    11    2
    18    11    12    1
    19    12    25    1
    20    25    27    1
    21    27    28    1
    22    28    29    1
    23    29    30    1
    24    27    31    1
    25    31    32    1
    26    32    33    1
    27    12    13    2
    28    17    18   ar
    29    18    19   ar
    30    19    15   ar
    31     6     1   ar
    32    13     8    1
    33    13     4    1
    34    30    28    1
    35    33    31    1
    36    21    23    1
    37    21    24    1
    38    25    26    1
@<TRIPOS>MOLECULE
*****
 33 38 0 0 0
SMALL
GASTEIGER

@<TRIPOS>ATOM
      1 C         141.5929  139.2968  158.7428 C.ar    1  UNL1        0.0045
      2 C         140.8441  138.4202  159.7024 C.ar    1  UNL1        0.0002
      3 C         140.1480  139.0261  160.8849 C.ar    1  UNL1        0.0018
      4 C         140.2007  140.5085  161.1078 C.ar    1  UNL1        0.0259
      5 C         140.9495  141.3851  160.1482 C.ar    1  UNL1        0.0812
      6 C         141.6456  140.7792  158.9657 C.ar    1  UNL1        0.0192
      7 N         140.8277  142.8026  160.6233 N.2     1  UNL1       -0.2485
      8 C         140.0035  142.8021  161.8766 C.2     1  UNL1        0.0825
      9 C         139.5558  143.9095  162.7838 C.3     1  UNL1        0.1853
     10 C         138.7206  143.5992  163.9905 C.2     1  UNL1        0.2236
     11 N         138.3331  142.1814  164.2900 N.2     1  UNL1       -0.0404
     12 C         138.7808  141.0739  163.3827 C.2     1  UNL1        0.3219
     13 C         139.6160  141.3843  162.1761 C.2     1  UNL1        0.0979
     14 C         143.9906  135.8338  155.5584 C.3     1  UNL1        0.1538
     15 N         143.3912  137.0991  156.0966 N.ar    1  UNL1       -0.2473
     16 C         142.7482  137.2678  157.4412 C.ar    1  UNL1        0.0967
     17 C         142.2891  138.6909  157.5603 C.ar    1  UNL1        0.0397
     18 C         142.6484  139.4017  156.2892 C.ar    1  UNL1        0.1216
     19 N         143.3295  138.4180  155.3846 N.ar    1  UNL1       -0.1676
     20 C         139.9433  145.3274  162.4844 C.2     1  UNL1        0.2327
     21 N         141.1647  145.9215  163.1210 N.am    1  UNL1       -0.3281
     22 O         139.1093  146.1511  161.5484 O.2     1  UNL1       -0.2744
     23 H         141.7120  145.3809  163.7353 H       1  UNL1        0.1450
     24 H         141.4190  146.8521  162.9245 H       1  UNL1        0.1450
     25 N         138.3933  139.6562  163.6821 N.pl3   1  UNL1       -0.2222
     26 H         137.6833  139.2189  163.1588 H       1  UNL1        0.2921
     27 C         139.0877  138.9045  164.7789 C.3     1  UNL1        0.1564
     28 C         138.5526  138.9568  166.1792 C.3     1  UNL1        0.0426
     29 C         138.6121  139.5084  167.5730 C.3     1  UNL1        0.0041
     30 C         137.5661  138.4959  167.2110 C.3     1  UNL1        0.0041
     31 C         140.3172  138.1006  164.4755 C.3     1  UNL1        0.0426
     32 C         141.0140  137.0488  163.6642 C.3     1  UNL1        0.0041
     33 C         141.7498  137.7600  164.7610 C.3     1  UNL1        0.0041
@<TRIPOS>BOND
     1    14    15    1
     2    15    16   ar
     3    16    17   ar
     4    17     1    1
     5     1     2   ar
     6     2     3   ar
     7     3     4   ar
     8     4     5   ar
     9     5     6   ar
    10     5     7    1
    11     7     8    2
    12     8     9    1
    13     9    20    1
    14    20    21   am
    15    20    22    2
    16     9    10    1
    17    10    11    2
    18    11    12    1
    19    12    25    1
    20    25    27    1
    21    27    28    1
    22    28    29    1
    23    29    30    1
    24    27    31    1
    25    31    32    1
    26    32    33    1
    27    12    13    2
    28    17    18   ar
    29    18    19   ar
    30    19    15   ar
    31     6     1   ar
    32    13     8    1
    33    13     4    1
    34    30    28    1
    35    33    31    1
    36    21    23    1
    37    21    24    1
    38    25    26    1
@<TRIPOS>MOLECULE
*****
 33 38 0 0 0
SMALL
GASTEIGER

@<TRIPOS>ATOM
      1 C         142.3386  138.7889  158.6410 C.ar    1  UNL1        0.0045
      2 C         142.0074  138.1382  159.9513 C.ar    1  UNL1        0.0002
      3 C         141.4907  138.9662  161.0904 C.ar    1  UNL1        0.0018
      4 C         141.3054  140.4448  160.9192 C.ar    1  UNL1        0.0259
      5 C         141.6366  141.0955  159.6089 C.ar    1  UNL1        0.0812
      6 C         142.1533  140.2675  158.4699 C.ar    1  UNL1        0.0192
      7 N         141.3536  142.5631  159.7356 N.2     1  UNL1       -0.2485
      8 C         140.8473  142.8194  161.1241 C.2     1  UNL1        0.0825
      9 C         140.4097  144.0758  161.8168 C.3     1  UNL1        0.1853
     10 C         139.9422  144.0230  163.2411 C.2     1  UNL1        0.2236
     11 N         139.9124  142.7139  163.9727 N.2     1  UNL1       -0.0404
     12 C         140.3501  141.4575  163.2799 C.2     1  UNL1        0.3219
     13 C         140.8175  141.5103  161.8557 C.2     1  UNL1        0.0979
     14 C         143.7115  134.6565  155.6545 C.3     1  UNL1        0.1538
     15 N         143.4863  136.0614  156.1291 N.ar    1  UNL1       -0.2473
     16 C         142.8937  136.4624  157.4475 C.ar    1  UNL1        0.0967
     17 C         142.8553  137.9609  157.5019 C.ar    1  UNL1        0.0397
     18 C         143.4242  138.4861  156.2172 C.ar    1  UNL1        0.1216
     19 N         143.8142  137.3122  155.3688 N.ar    1  UNL1       -0.1676
     20 C         140.4394  145.3850  161.0852 C.2     1  UNL1        0.2327
     21 N         141.5492  145.6798  160.1201 N.am    1  UNL1       -0.3281
     22 O         139.3594  146.3994  161.3188 O.2     1  UNL1       -0.2744
     23 H         142.2581  145.0140  159.9668 H       1  UNL1        0.1450
     24 H         141.5688  146.5391  159.6400 H       1  UNL1        0.1450
     25 N         140.3203  140.1483  164.0115 N.pl3   1  UNL1       -0.2222
     26 H         141.1203  139.8347  164.4921 H       1  UNL1        0.2921
     27 C         139.0717  139.3171  164.0109 C.3     1  UNL1        0.1564
     28 C         138.3289  139.0803  162.7294 C.3     1  UNL1        0.0426
     29 C         137.6053  139.6156  161.5293 C.3     1  UNL1        0.0041
     30 C         137.7659  138.1351  161.7098 C.3     1  UNL1        0.0041
     31 C         138.5659  138.7225  165.2917 C.3     1  UNL1        0.0426
     32 C         138.1885  137.5206  166.1061 C.3     1  UNL1        0.0041
     33 C         138.0671  138.8944  166.6959 C.3     1  UNL1        0.0041
@<TRIPOS>BOND
     1    14    15    1
     2    15    16   ar
     3    16    17   ar
     4    17     1    1
     5     1     2   ar
     6     2     3   ar
     7     3     4   ar
     8     4     5   ar
     9     5     6   ar
    10     5     7    1
    11     7     8    2
    12     8     9    1
    13     9    20    1
    14    20    21   am
    15    20    22    2
    16     9    10    1
    17    10    11    2
    18    11    12    1
    19    12    25    1
    20    25    27    1
    21    27    28    1
    22    28    29    1
    23    29    30    1
    24    27    31    1
    25    31    32    1
    26    32    33    1
    27    12    13    2
    28    17    18   ar
    29    18    19   ar
    30    19    15   ar
    31     6     1   ar
    32    13     8    1
    33    13     4    1
    34    30    28    1
    35    33    31    1
    36    21    23    1
    37    21    24    1
    38    25    26    1
@<TRIPOS>MOLECULE
*****
 33 38 0 0 0
SMALL
GASTEIGER

@<TRIPOS>ATOM
      1 C         141.2145  139.1597  160.0706 C.ar    1  UNL1        0.0045
      2 C         140.6495  140.5461  160.1629 C.ar    1  UNL1        0.0002
      3 C         140.6731  141.2800  161.4708 C.ar    1  UNL1        0.0018
      4 C         141.2617  140.6275  162.6865 C.ar    1  UNL1        0.0259
      5 C         141.8267  139.2411  162.5942 C.ar    1  UNL1        0.0812
      6 C         141.8031  138.5072  161.2863 C.ar    1  UNL1        0.0192
      7 N         142.3374  138.8575  163.9514 N.2     1  UNL1       -0.2485
      8 C         142.0881  140.0068  164.8825 C.2     1  UNL1        0.0825
      9 C         142.3805  140.1984  166.3411 C.3     1  UNL1        0.1853
     10 C         142.0081  141.4842  167.0180 C.2     1  UNL1        0.2236
     11 N         141.3433  142.5782  166.2363 N.2     1  UNL1       -0.0404
     12 C         141.0508  142.3864  164.7777 C.2     1  UNL1        0.3219
     13 C         141.4232  141.1008  164.1008 C.2     1  UNL1        0.0979
     14 C         139.5330  136.9817  155.5640 C.3     1  UNL1        0.1538
     15 N         140.4180  137.4246  156.6912 N.ar    1  UNL1       -0.2473
     16 C         139.9852  138.2020  157.8988 C.ar    1  UNL1        0.0967
     17 C         141.1909  138.4257  158.7626 C.ar    1  UNL1        0.0397
     18 C         142.3689  137.7865  158.0889 C.ar    1  UNL1        0.1216
     19 N         141.8912  137.1678  156.8087 N.ar    1  UNL1       -0.1676
     20 C         143.0454  139.1044  167.1229 C.2     1  UNL1        0.2327
     21 N         143.8733  138.0732  166.4149 N.am    1  UNL1       -0.3281
     22 O         142.8824  139.0416  168.6127 O.2     1  UNL1       -0.2744
     23 H         143.9803  138.1145  165.4371 H       1  UNL1        0.1450
     24 H         144.3097  137.3552  166.9280 H       1  UNL1        0.1450
     25 N         140.3860  143.4804  163.9959 N.pl3   1  UNL1       -0.2222
     26 H         139.4095  143.5961  164.0438 H       1  UNL1        0.2921
     27 C         141.2089  144.3983  163.1413 C.3     1  UNL1        0.1564
     28 C         142.6856  144.5182  163.3758 C.3     1  UNL1        0.0426
     29 C         143.8332  145.0074  164.2089 C.3     1  UNL1        0.0041
     30 C         144.0958  144.2369  162.9488 C.3     1  UNL1        0.0041
     31 C         140.5552  145.1961  162.0522 C.3     1  UNL1        0.0426
     32 C         140.3239  145.4574  160.5934 C.3     1  UNL1        0.0041
     33 C         139.6544  146.3166  161.6247 C.3     1  UNL1        0.0041
@<TRIPOS>BOND
     1    14    15    1
     2    15    16   ar
     3    16    17   ar
     4    17     1    1
     5     1     2   ar
     6     2     3   ar
     7     3     4   ar
     8     4     5   ar
     9     5     6   ar
    10     5     7    1
    11     7     8    2
    12     8     9    1
    13     9    20    1
    14    20    21   am
    15    20    22    2
    16     9    10    1
    17    10    11    2
    18    11    12    1
    19    12    25    1
    20    25    27    1
    21    27    28    1
    22    28    29    1
    23    29    30    1
    24    27    31    1
    25    31    32    1
    26    32    33    1
    27    12    13    2
    28    17    18   ar
    29    18    19   ar
    30    19    15   ar
    31     6     1   ar
    32    13     8    1
    33    13     4    1
    34    30    28    1
    35    33    31    1
    36    21    23    1
    37    21    24    1
    38    25    26    1
@<TRIPOS>MOLECULE
*****
 33 38 0 0 0
SMALL
GASTEIGER

@<TRIPOS>ATOM
      1 C         139.1675  143.0579  158.3725 C.ar    1  UNL1        0.0045
      2 C         138.1886  142.3278  159.2435 C.ar    1  UNL1        0.0002
      3 C         138.4507  142.1899  160.7140 C.ar    1  UNL1        0.0018
      4 C         139.6917  142.7822  161.3134 C.ar    1  UNL1        0.0259
      5 C         140.6705  143.5123  160.4424 C.ar    1  UNL1        0.0812
      6 C         140.4084  143.6502  158.9720 C.ar    1  UNL1        0.0192
      7 N         141.7983  143.9874  161.3098 N.2     1  UNL1       -0.2485
      8 C         141.5164  143.5509  162.7170 C.2     1  UNL1        0.0825
      9 C         142.2771  143.7355  163.9965 C.3     1  UNL1        0.1853
     10 C         141.7358  143.1752  165.2783 C.2     1  UNL1        0.2236
     11 N         140.4338  142.4303  165.2806 N.2     1  UNL1       -0.0404
     12 C         139.6732  142.2458  164.0010 C.2     1  UNL1        0.3219
     13 C         140.2144  142.8060  162.7192 C.2     1  UNL1        0.0979
     14 C         139.8923  143.6693  153.1781 C.3     1  UNL1        0.1538
     15 N         139.2387  143.4769  154.5144 N.ar    1  UNL1       -0.2473
     16 C         139.9429  143.3882  155.8358 C.ar    1  UNL1        0.0967
     17 C         138.9055  143.1958  156.9020 C.ar    1  UNL1        0.0397
     18 C         137.5600  143.1655  156.2395 C.ar    1  UNL1        0.1216
     19 N         137.7659  143.3392  154.7639 N.ar    1  UNL1       -0.1676
     20 C         143.5791  144.4804  163.9943 C.2     1  UNL1        0.2327
     21 N         143.9476  145.3431  162.8238 N.am    1  UNL1       -0.3281
     22 O         144.5126  144.3626  165.1625 O.2     1  UNL1       -0.2744
     23 H         143.3350  145.4204  162.0571 H       1  UNL1        0.1450
     24 H         144.8022  145.8320  162.8224 H       1  UNL1        0.1450
     25 N         138.3712  141.5009  164.0032 N.pl3   1  UNL1       -0.2222
     26 H         137.5260  141.9866  163.8657 H       1  UNL1        0.2921
     27 C         138.3570  140.0160  164.2150 C.3     1  UNL1        0.1564
     28 C         138.3410  139.0902  163.0349 C.3     1  UNL1        0.0426
     29 C         137.7559  138.6747  161.7176 C.3     1  UNL1        0.0041
     30 C         138.8983  137.9023  162.3080 C.3     1  UNL1        0.0041
     31 C         138.3589  139.4568  165.6068 C.3     1  UNL1        0.0426
     32 C         138.8896  139.4661  167.0098 C.3     1  UNL1        0.0041
     33 C         137.8315  138.4790  166.6147 C.3     1  UNL1        0.0041
@<TRIPOS>BOND
     1    14    15    1
     2    15    16   ar
     3    16    17   ar
     4    17     1    1
     5     1     2   ar
     6     2     3   ar
     7     3     4   ar
     8     4     5   ar
     9     5     6   ar
    10     5     7    1
    11     7     8    2
    12     8     9    1
    13     9    20    1
    14    20    21   am
    15    20    22    2
    16     9    10    1
    17    10    11    2
    18    11    12    1
    19    12    25    1
    20    25    27    1
    21    27    28    1
    22    28    29    1
    23    29    30    1
    24    27    31    1
    25    31    32    1
    26    32    33    1
    27    12    13    2
    28    17    18   ar
    29    18    19   ar
    30    19    15   ar
    31     6     1   ar
    32    13     8    1
    33    13     4    1
    34    30    28    1
    35    33    31    1
    36    21    23    1
    37    21    24    1
    38    25    26    1
