@<TRIPOS>MOLECULE
*****
 31 33 0 0 0
SMALL
GASTEIGER

@<TRIPOS>ATOM
      1 C         139.0145  138.9634  165.4851 C.ar    1  UNL1        0.1387
      2 C         139.4914  137.6005  165.0787 C.ar    1  UNL1        0.0384
      3 C         140.1861  137.4104  163.7630 C.ar    1  UNL1        0.0207
      4 C         140.4040  138.5832  162.8536 C.ar    1  UNL1        0.0671
      5 C         139.9271  139.9460  163.2599 C.ar    1  UNL1        0.0207
      6 C         139.2324  140.1361  164.5757 C.ar    1  UNL1        0.0384
      7 N         141.0987  138.3931  161.5378 N.ar    1  UNL1       -0.2729
      8 C         142.5615  138.0629  161.5029 C.ar    1  UNL1        0.0860
      9 C         143.2562  137.8728  160.1871 C.ar    1  UNL1        0.0561
     10 C         142.4882  138.0129  158.9063 C.ar    1  UNL1        0.1453
     11 C         141.0255  138.3431  158.9413 C.ar    1  UNL1        0.0980
     12 C         140.3307  138.5332  160.2570 C.ar    1  UNL1        0.2679
     13 O         138.8679  138.8635  160.2919 O.2     1  UNL1       -0.2665
     14 O         143.1830  137.8228  157.5906 O.3     1  UNL1       -0.4704
     15 C         142.4641  137.1633  156.4512 C.3     1  UNL1        0.2320
     16 C         142.4243  135.6669  156.3552 C.ar    1  UNL1        0.0212
     17 C         143.3314  134.8359  157.2135 C.ar    1  UNL1       -0.0007
     18 C         143.2916  133.3395  157.1174 C.ar    1  UNL1       -0.0002
     19 C         142.3446  132.6741  156.1631 C.ar    1  UNL1       -0.0000
     20 C         141.4375  133.5051  155.3049 C.ar    1  UNL1       -0.0002
     21 C         141.4773  135.0015  155.4010 C.ar    1  UNL1       -0.0007
     22 O         138.3198  139.1534  166.8008 O.3     1  UNL1       -0.4740
     23 C         139.0242  139.8498  167.9272 C.3     1  UNL1        0.2226
     24 C         140.5193  139.9705  167.9163 C.3     1  UNL1        0.1200
     25 N         141.1698  141.1786  167.3100 N.3     1  UNL1       -0.2721
     26 C         139.9760  143.2749  166.3456 C.3     1  UNL1        0.0173
     27 C         140.5647  142.5364  167.5108 C.3     1  UNL1        0.0577
     28 C         140.5485  143.1556  168.8770 C.3     1  UNL1        0.0173
     29 C         142.4253  141.0288  166.5030 C.3     1  UNL1        0.0577
     30 C         143.3634  142.1897  166.3530 C.3     1  UNL1        0.0173
     31 C         142.7428  139.7183  165.8461 C.3     1  UNL1        0.0173
@<TRIPOS>BOND
     1    26    27    1
     2    27    28    1
     3    27    25    1
     4    25    24    1
     5    24    23    1
     6    23    22    1
     7    22     1    1
     8     1     2   ar
     9     2     3   ar
    10     3     4   ar
    11     4     7    1
    12     7     8   ar
    13     8     9   ar
    14     9    10   ar
    15    10    14    1
    16    14    15    1
    17    15    16    1
    18    16    17   ar
    19    17    18   ar
    20    18    19   ar
    21    19    20   ar
    22    20    21   ar
    23    10    11   ar
    24    11    12   ar
    25    12    13    2
    26     4     5   ar
    27     5     6   ar
    28    25    29    1
    29    29    30    1
    30    29    31    1
    31     6     1   ar
    32    12     7   ar
    33    21    16   ar
@<TRIPOS>MOLECULE
*****
 31 33 0 0 0
SMALL
GASTEIGER

@<TRIPOS>ATOM
      1 C         138.8661  139.4699  164.6920 C.ar    1  UNL1        0.1387
      2 C         138.8569  138.0620  164.1747 C.ar    1  UNL1        0.0384
      3 C         139.5210  137.7383  162.8692 C.ar    1  UNL1        0.0207
      4 C         140.1942  138.8225  162.0811 C.ar    1  UNL1        0.0671
      5 C         140.2035  140.2304  162.5984 C.ar    1  UNL1        0.0207
      6 C         139.5394  140.5541  163.9039 C.ar    1  UNL1        0.0384
      7 N         140.8583  138.4988  160.7756 N.ar    1  UNL1       -0.2729
      8 C         140.0979  138.6446  159.4909 C.ar    1  UNL1        0.0860
      9 C         140.7619  138.3209  158.1854 C.ar    1  UNL1        0.0561
     10 C         142.1864  137.8514  158.1646 C.ar    1  UNL1        0.1453
     11 C         142.9467  137.7056  159.4493 C.ar    1  UNL1        0.0980
     12 C         142.2827  138.0293  160.7548 C.ar    1  UNL1        0.2679
     13 O         143.0432  137.8834  162.0395 O.2     1  UNL1       -0.2665
     14 O         142.8504  137.5277  156.8592 O.3     1  UNL1       -0.4704
     15 C         142.2040  136.5655  155.9072 C.3     1  UNL1        0.2320
     16 C         142.3763  135.0882  156.1017 C.ar    1  UNL1        0.0212
     17 C         143.3998  134.5735  157.0700 C.ar    1  UNL1       -0.0007
     18 C         143.5720  133.0962  157.2645 C.ar    1  UNL1       -0.0002
     19 C         142.7208  132.1335  156.4906 C.ar    1  UNL1       -0.0000
     20 C         141.6974  132.6482  155.5223 C.ar    1  UNL1       -0.0002
     21 C         141.5251  134.1256  155.3279 C.ar    1  UNL1       -0.0007
     22 O         138.2021  139.7936  165.9975 O.3     1  UNL1       -0.4740
     23 C         138.6948  139.1631  167.2662 C.3     1  UNL1        0.2226
     24 C         139.2095  140.0244  168.3811 C.3     1  UNL1        0.1200
     25 N         140.5159  140.7459  168.2296 N.3     1  UNL1       -0.2721
     26 C         142.2888  139.3982  169.5675 C.3     1  UNL1        0.0173
     27 C         141.8050  139.9802  168.2725 C.3     1  UNL1        0.0577
     28 C         142.6102  139.7965  167.0203 C.3     1  UNL1        0.0173
     29 C         140.5331  142.2332  168.0351 C.3     1  UNL1        0.0577
     30 C         140.6729  143.1429  169.2196 C.3     1  UNL1        0.0173
     31 C         140.4104  142.8107  166.6562 C.3     1  UNL1        0.0173
@<TRIPOS>BOND
     1    26    27    1
     2    27    28    1
     3    27    25    1
     4    25    24    1
     5    24    23    1
     6    23    22    1
     7    22     1    1
     8     1     2   ar
     9     2     3   ar
    10     3     4   ar
    11     4     7    1
    12     7     8   ar
    13     8     9   ar
    14     9    10   ar
    15    10    14    1
    16    14    15    1
    17    15    16    1
    18    16    17   ar
    19    17    18   ar
    20    18    19   ar
    21    19    20   ar
    22    20    21   ar
    23    10    11   ar
    24    11    12   ar
    25    12    13    2
    26     4     5   ar
    27     5     6   ar
    28    25    29    1
    29    29    30    1
    30    29    31    1
    31     6     1   ar
    32    12     7   ar
    33    21    16   ar
@<TRIPOS>MOLECULE
*****
 31 33 0 0 0
SMALL
GASTEIGER

@<TRIPOS>ATOM
      1 C         138.7083  139.0982  165.1089 C.ar    1  UNL1        0.1387
      2 C         138.7920  140.2662  164.1715 C.ar    1  UNL1        0.0384
      3 C         139.3341  140.0782  162.7856 C.ar    1  UNL1        0.0207
      4 C         139.7924  138.7222  162.3371 C.ar    1  UNL1        0.0671
      5 C         139.7087  137.5542  163.2745 C.ar    1  UNL1        0.0207
      6 C         139.1667  137.7422  164.6604 C.ar    1  UNL1        0.0384
      7 N         140.3345  138.5342  160.9511 N.ar    1  UNL1       -0.2729
      8 C         139.4141  138.6102  159.7691 C.ar    1  UNL1        0.0860
      9 C         139.9562  138.4222  158.3832 C.ar    1  UNL1        0.0561
     10 C         141.4186  138.1581  158.1792 C.ar    1  UNL1        0.1453
     11 C         142.3389  138.0821  159.3612 C.ar    1  UNL1        0.0980
     12 C         141.7969  138.2701  160.7472 C.ar    1  UNL1        0.2679
     13 O         142.7173  138.1941  161.9292 O.2     1  UNL1       -0.2665
     14 O         141.9606  137.9701  156.7933 O.3     1  UNL1       -0.4704
     15 C         143.0968  137.0204  156.5548 C.3     1  UNL1        0.2320
     16 C         142.8203  135.5668  156.3087 C.ar    1  UNL1        0.0212
     17 C         142.0615  135.1443  155.0856 C.ar    1  UNL1       -0.0007
     18 C         141.7849  133.6907  154.8395 C.ar    1  UNL1       -0.0002
     19 C         142.2672  132.6596  155.8164 C.ar    1  UNL1       -0.0000
     20 C         143.0259  133.0821  157.0394 C.ar    1  UNL1       -0.0002
     21 C         143.3024  134.5357  157.2855 C.ar    1  UNL1       -0.0007
     22 O         138.1663  139.2862  166.4949 O.3     1  UNL1       -0.4740
     23 C         139.0946  139.6226  167.6241 C.3     1  UNL1        0.2226
     24 C         140.1128  140.7116  167.4589 C.3     1  UNL1        0.1200
     25 N         141.5746  140.3756  167.4441 N.3     1  UNL1       -0.2721
     26 C         142.5160  141.0060  165.1061 C.3     1  UNL1        0.0173
     27 C         142.2393  139.9755  166.1603 C.3     1  UNL1        0.0577
     28 C         142.6273  138.5447  165.9308 C.3     1  UNL1        0.0173
     29 C         142.3718  140.4397  168.7131 C.3     1  UNL1        0.0577
     30 C         142.3794  139.2713  169.6539 C.3     1  UNL1        0.0173
     31 C         143.1613  141.6721  169.0415 C.3     1  UNL1        0.0173
@<TRIPOS>BOND
     1    26    27    1
     2    27    28    1
     3    27    25    1
     4    25    24    1
     5    24    23    1
     6    23    22    1
     7    22     1    1
     8     1     2   ar
     9     2     3   ar
    10     3     4   ar
    11     4     7    1
    12     7     8   ar
    13     8     9   ar
    14     9    10   ar
    15    10    14    1
    16    14    15    1
    17    15    16    1
    18    16    17   ar
    19    17    18   ar
    20    18    19   ar
    21    19    20   ar
    22    20    21   ar
    23    10    11   ar
    24    11    12   ar
    25    12    13    2
    26     4     5   ar
    27     5     6   ar
    28    25    29    1
    29    29    30    1
    30    29    31    1
    31     6     1   ar
    32    12     7   ar
    33    21    16   ar
@<TRIPOS>MOLECULE
*****
 31 33 0 0 0
SMALL
GASTEIGER

@<TRIPOS>ATOM
      1 C         137.8820  140.7005  161.6461 C.ar    1  UNL1        0.1387
      2 C         138.4927  141.4222  160.4815 C.ar    1  UNL1        0.0384
      3 C         139.3115  140.6671  159.4769 C.ar    1  UNL1        0.0207
      4 C         139.5197  139.1903  159.6368 C.ar    1  UNL1        0.0671
      5 C         138.9091  138.4686  160.8013 C.ar    1  UNL1        0.0207
      6 C         138.0902  139.2237  161.8060 C.ar    1  UNL1        0.0384
      7 N         140.3385  138.4352  158.6321 N.ar    1  UNL1       -0.2729
      8 C         139.6964  137.9137  157.3809 C.ar    1  UNL1        0.0860
      9 C         140.5152  137.1586  156.3762 C.ar    1  UNL1        0.0561
     10 C         141.9762  136.9249  156.6228 C.ar    1  UNL1        0.1453
     11 C         142.6183  137.4464  157.8740 C.ar    1  UNL1        0.0980
     12 C         141.7995  138.2015  158.8787 C.ar    1  UNL1        0.2679
     13 O         142.4418  138.7230  160.1300 O.2     1  UNL1       -0.2665
     14 O         142.7950  136.1698  155.6182 O.3     1  UNL1       -0.4704
     15 C         142.5286  134.7138  155.3756 C.3     1  UNL1        0.2320
     16 C         143.4066  133.6751  156.0082 C.ar    1  UNL1        0.0212
     17 C         143.7281  132.4118  155.2661 C.ar    1  UNL1       -0.0007
     18 C         144.6061  131.3731  155.8987 C.ar    1  UNL1       -0.0002
     19 C         145.1627  131.5977  157.2734 C.ar    1  UNL1       -0.0000
     20 C         144.8412  132.8610  158.0155 C.ar    1  UNL1       -0.0002
     21 C         143.9631  133.8997  157.3829 C.ar    1  UNL1       -0.0007
     22 O         137.0632  141.4556  162.6507 O.3     1  UNL1       -0.4740
     23 C         137.5465  142.7766  163.1715 C.3     1  UNL1        0.2226
     24 C         138.2738  142.8456  164.4817 C.3     1  UNL1        0.1200
     25 N         139.3705  141.8676  164.7831 N.3     1  UNL1       -0.2721
     26 C         139.9012  140.8427  167.1107 C.3     1  UNL1        0.0173
     27 C         139.1572  140.7944  165.8092 C.3     1  UNL1        0.0577
     28 C         138.1999  139.6729  165.5336 C.3     1  UNL1        0.0173
     29 C         140.6804  141.9628  164.0585 C.3     1  UNL1        0.0577
     30 C         141.2056  140.7800  163.3000 C.3     1  UNL1        0.0173
     31 C         141.4650  143.2407  164.0922 C.3     1  UNL1        0.0173
@<TRIPOS>BOND
     1    26    27    1
     2    27    28    1
     3    27    25    1
     4    25    24    1
     5    24    23    1
     6    23    22    1
     7    22     1    1
     8     1     2   ar
     9     2     3   ar
    10     3     4   ar
    11     4     7    1
    12     7     8   ar
    13     8     9   ar
    14     9    10   ar
    15    10    14    1
    16    14    15    1
    17    15    16    1
    18    16    17   ar
    19    17    18   ar
    20    18    19   ar
    21    19    20   ar
    22    20    21   ar
    23    10    11   ar
    24    11    12   ar
    25    12    13    2
    26     4     5   ar
    27     5     6   ar
    28    25    29    1
    29    29    30    1
    30    29    31    1
    31     6     1   ar
    32    12     7   ar
    33    21    16   ar
@<TRIPOS>MOLECULE
*****
 31 33 0 0 0
SMALL
GASTEIGER

@<TRIPOS>ATOM
      1 C         141.8803  143.1271  164.6557 C.ar    1  UNL1        0.1387
      2 C         142.9608  143.9573  164.0286 C.ar    1  UNL1        0.0384
      3 C         142.8307  144.4047  162.6028 C.ar    1  UNL1        0.0207
      4 C         141.6201  144.0220  161.8041 C.ar    1  UNL1        0.0671
      5 C         140.5396  143.1918  162.4312 C.ar    1  UNL1        0.0207
      6 C         140.6697  142.7444  163.8570 C.ar    1  UNL1        0.0384
      7 N         141.4901  144.4694  160.3783 N.ar    1  UNL1       -0.2729
      8 C         142.3934  143.8962  159.3270 C.ar    1  UNL1        0.0860
      9 C         142.2633  144.3436  157.9012 C.ar    1  UNL1        0.0561
     10 C         141.2299  145.3643  157.5267 C.ar    1  UNL1        0.1453
     11 C         140.3266  145.9375  158.5781 C.ar    1  UNL1        0.0980
     12 C         140.4567  145.4901  160.0039 C.ar    1  UNL1        0.2679
     13 O         139.5533  146.0634  161.0552 O.2     1  UNL1       -0.2665
     14 O         141.0999  145.8117  156.1009 O.3     1  UNL1       -0.4704
     15 C         139.7663  146.2477  155.5704 C.3     1  UNL1        0.2320
     16 C         139.4784  147.7065  155.3726 C.ar    1  UNL1        0.0212
     17 C         139.9560  148.4039  154.1334 C.ar    1  UNL1       -0.0007
     18 C         139.6681  149.8627  153.9356 C.ar    1  UNL1       -0.0002
     19 C         138.9024  150.6240  154.9770 C.ar    1  UNL1       -0.0000
     20 C         138.4248  149.9265  156.2160 C.ar    1  UNL1       -0.0002
     21 C         138.7128  148.4677  156.4138 C.ar    1  UNL1       -0.0007
     22 O         142.0103  142.6797  166.0815 O.3     1  UNL1       -0.4740
     23 C         140.9071  141.8925  166.7241 C.3     1  UNL1        0.2226
     24 C         140.9985  140.3972  166.7999 C.3     1  UNL1        0.1200
     25 N         140.3350  139.5513  165.7538 N.3     1  UNL1       -0.2721
     26 C         138.1256  140.2102  164.5563 C.3     1  UNL1        0.0173
     27 C         138.8383  139.5002  165.6689 C.3     1  UNL1        0.0577
     28 C         138.0543  138.7390  166.6966 C.3     1  UNL1        0.0173
     29 C         141.1683  138.7565  164.7926 C.3     1  UNL1        0.0577
     30 C         142.2540  139.4299  164.0066 C.3     1  UNL1        0.0173
     31 C         140.9160  137.2883  164.6175 C.3     1  UNL1        0.0173
@<TRIPOS>BOND
     1    26    27    1
     2    27    28    1
     3    27    25    1
     4    25    24    1
     5    24    23    1
     6    23    22    1
     7    22     1    1
     8     1     2   ar
     9     2     3   ar
    10     3     4   ar
    11     4     7    1
    12     7     8   ar
    13     8     9   ar
    14     9    10   ar
    15    10    14    1
    16    14    15    1
    17    15    16    1
    18    16    17   ar
    19    17    18   ar
    20    18    19   ar
    21    19    20   ar
    22    20    21   ar
    23    10    11   ar
    24    11    12   ar
    25    12    13    2
    26     4     5   ar
    27     5     6   ar
    28    25    29    1
    29    29    30    1
    30    29    31    1
    31     6     1   ar
    32    12     7   ar
    33    21    16   ar
@<TRIPOS>MOLECULE
*****
 31 33 0 0 0
SMALL
GASTEIGER

@<TRIPOS>ATOM
      1 C         138.5070  139.0939  166.2274 C.ar    1  UNL1        0.1387
      2 C         138.4126  140.4041  165.5033 C.ar    1  UNL1        0.0384
      3 C         138.5380  140.4460  164.0091 C.ar    1  UNL1        0.0207
      4 C         138.7577  139.1776  163.2391 C.ar    1  UNL1        0.0671
      5 C         138.8521  137.8674  163.9632 C.ar    1  UNL1        0.0207
      6 C         138.7267  137.8256  165.4574 C.ar    1  UNL1        0.0384
      7 N         138.8831  139.2195  161.7449 N.ar    1  UNL1       -0.2729
      8 C         137.9337  140.0523  160.9357 C.ar    1  UNL1        0.0860
      9 C         138.0591  140.0942  159.4415 C.ar    1  UNL1        0.0561
     10 C         139.1339  139.3032  158.7566 C.ar    1  UNL1        0.1453
     11 C         140.0833  138.4704  159.5659 C.ar    1  UNL1        0.0980
     12 C         139.9579  138.4285  161.0600 C.ar    1  UNL1        0.2679
     13 O         140.9074  137.5957  161.8693 O.2     1  UNL1       -0.2665
     14 O         139.2592  139.3451  157.2624 O.3     1  UNL1       -0.4704
     15 C         138.7475  140.5310  156.4998 C.3     1  UNL1        0.2320
     16 C         137.4247  140.4565  155.7963 C.ar    1  UNL1        0.0212
     17 C         137.2050  139.4367  154.7184 C.ar    1  UNL1       -0.0007
     18 C         135.8823  139.3622  154.0149 C.ar    1  UNL1       -0.0002
     19 C         134.7793  140.3074  154.3894 C.ar    1  UNL1       -0.0000
     20 C         134.9991  141.3270  155.4673 C.ar    1  UNL1       -0.0002
     21 C         136.3218  141.4016  156.1708 C.ar    1  UNL1       -0.0007
     22 O         138.3816  139.0520  167.7216 O.3     1  UNL1       -0.4740
     23 C         139.2336  139.9478  168.5711 C.3     1  UNL1        0.2226
     24 C         140.7258  139.9272  168.4206 C.3     1  UNL1        0.1200
     25 N         141.4428  141.1327  167.8888 N.3     1  UNL1       -0.2721
     26 C         142.1278  139.8983  165.7078 C.3     1  UNL1        0.0173
     27 C         141.8755  141.1753  166.4532 C.3     1  UNL1        0.0577
     28 C         142.0560  142.4948  165.7631 C.3     1  UNL1        0.0173
     29 C         141.7269  142.2956  168.7926 C.3     1  UNL1        0.0577
     30 C         143.1044  142.4906  169.3535 C.3     1  UNL1        0.0173
     31 C         140.6336  143.2636  169.1355 C.3     1  UNL1        0.0173
@<TRIPOS>BOND
     1    26    27    1
     2    27    28    1
     3    27    25    1
     4    25    24    1
     5    24    23    1
     6    23    22    1
     7    22     1    1
     8     1     2   ar
     9     2     3   ar
    10     3     4   ar
    11     4     7    1
    12     7     8   ar
    13     8     9   ar
    14     9    10   ar
    15    10    14    1
    16    14    15    1
    17    15    16    1
    18    16    17   ar
    19    17    18   ar
    20    18    19   ar
    21    19    20   ar
    22    20    21   ar
    23    10    11   ar
    24    11    12   ar
    25    12    13    2
    26     4     5   ar
    27     5     6   ar
    28    25    29    1
    29    29    30    1
    30    29    31    1
    31     6     1   ar
    32    12     7   ar
    33    21    16   ar
@<TRIPOS>MOLECULE
*****
 31 33 0 0 0
SMALL
GASTEIGER

@<TRIPOS>ATOM
      1 C         138.2929  142.3676  161.3073 C.ar    1  UNL1        0.1387
      2 C         138.0866  140.9054  161.5709 C.ar    1  UNL1        0.0384
      3 C         138.8998  139.8873  160.8278 C.ar    1  UNL1        0.0207
      4 C         139.9193  140.3314  159.8211 C.ar    1  UNL1        0.0671
      5 C         140.1255  141.7935  159.5575 C.ar    1  UNL1        0.0207
      6 C         139.3123  142.8116  160.3006 C.ar    1  UNL1        0.0384
      7 N         140.7325  139.3133  159.0780 N.ar    1  UNL1       -0.2729
      8 C         142.0746  138.8972  159.6029 C.ar    1  UNL1        0.0860
      9 C         142.8878  137.8791  158.8598 C.ar    1  UNL1        0.0561
     10 C         142.3589  137.2771  157.5918 C.ar    1  UNL1        0.1453
     11 C         141.0167  137.6932  157.0669 C.ar    1  UNL1        0.0980
     12 C         140.2035  138.7113  157.8100 C.ar    1  UNL1        0.2679
     13 O         138.8613  139.1273  157.2851 O.2     1  UNL1       -0.2665
     14 O         143.1721  136.2590  156.8487 O.3     1  UNL1       -0.4704
     15 C         142.5543  134.9517  156.4498 C.3     1  UNL1        0.2320
     16 C         143.3760  133.6969  156.4693 C.ar    1  UNL1        0.0212
     17 C         143.3174  132.7440  155.3122 C.ar    1  UNL1       -0.0007
     18 C         144.1391  131.4893  155.3316 C.ar    1  UNL1       -0.0002
     19 C         145.0194  131.1874  156.5081 C.ar    1  UNL1       -0.0000
     20 C         145.0780  132.1402  157.6651 C.ar    1  UNL1       -0.0002
     21 C         144.2563  133.3950  157.6456 C.ar    1  UNL1       -0.0007
     22 O         137.4797  143.3857  162.0504 O.3     1  UNL1       -0.4740
     23 C         137.5584  143.4617  163.5463 C.3     1  UNL1        0.2226
     24 C         138.5743  144.3511  164.1997 C.3     1  UNL1        0.1200
     25 N         140.0381  144.0896  164.0014 N.3     1  UNL1       -0.2721
     26 C         140.7821  142.6209  166.0112 C.3     1  UNL1        0.0173
     27 C         140.6531  142.8283  164.5313 C.3     1  UNL1        0.0577
     28 C         141.1391  141.7742  163.5811 C.3     1  UNL1        0.0173
     29 C         140.8867  145.0895  163.2734 C.3     1  UNL1        0.0577
     30 C         140.3295  145.8275  162.0923 C.3     1  UNL1        0.0173
     31 C         142.2925  145.3513  163.7264 C.3     1  UNL1        0.0173
@<TRIPOS>BOND
     1    26    27    1
     2    27    28    1
     3    27    25    1
     4    25    24    1
     5    24    23    1
     6    23    22    1
     7    22     1    1
     8     1     2   ar
     9     2     3   ar
    10     3     4   ar
    11     4     7    1
    12     7     8   ar
    13     8     9   ar
    14     9    10   ar
    15    10    14    1
    16    14    15    1
    17    15    16    1
    18    16    17   ar
    19    17    18   ar
    20    18    19   ar
    21    19    20   ar
    22    20    21   ar
    23    10    11   ar
    24    11    12   ar
    25    12    13    2
    26     4     5   ar
    27     5     6   ar
    28    25    29    1
    29    29    30    1
    30    29    31    1
    31     6     1   ar
    32    12     7   ar
    33    21    16   ar
@<TRIPOS>MOLECULE
*****
 31 33 0 0 0
SMALL
GASTEIGER

@<TRIPOS>ATOM
      1 C         138.8523  139.7069  163.8650 C.ar    1  UNL1        0.1387
      2 C         139.4928  140.7438  162.9906 C.ar    1  UNL1        0.0384
      3 C         140.1087  140.3450  161.6823 C.ar    1  UNL1        0.0207
      4 C         140.0839  138.9094  161.2483 C.ar    1  UNL1        0.0671
      5 C         139.4433  137.8726  162.1227 C.ar    1  UNL1        0.0207
      6 C         138.8275  138.2713  163.4310 C.ar    1  UNL1        0.0384
      7 N         140.6997  138.5107  159.9399 N.ar    1  UNL1       -0.2729
      8 C         139.8447  138.3945  158.7130 C.ar    1  UNL1        0.0860
      9 C         140.4605  137.9957  157.4047 C.ar    1  UNL1        0.0561
     10 C         141.9314  137.7131  157.3233 C.ar    1  UNL1        0.1453
     11 C         142.7864  137.8293  158.5502 C.ar    1  UNL1        0.0980
     12 C         142.1706  138.2281  159.8585 C.ar    1  UNL1        0.2679
     13 O         143.0257  138.3443  161.0855 O.2     1  UNL1       -0.2665
     14 O         142.5472  137.3144  156.0149 O.3     1  UNL1       -0.4704
     15 C         143.5923  136.2392  155.9747 C.3     1  UNL1        0.2320
     16 C         143.1893  134.7976  156.0711 C.ar    1  UNL1        0.0212
     17 C         144.0051  133.8441  156.8931 C.ar    1  UNL1       -0.0007
     18 C         143.6021  132.4025  156.9895 C.ar    1  UNL1       -0.0002
     19 C         142.3834  131.9143  156.2639 C.ar    1  UNL1       -0.0000
     20 C         141.5677  132.8677  155.4420 C.ar    1  UNL1       -0.0002
     21 C         141.9707  134.3093  155.3455 C.ar    1  UNL1       -0.0007
     22 O         138.2365  140.1057  165.1733 O.3     1  UNL1       -0.4740
     23 C         138.7767  139.5491  166.4571 C.3     1  UNL1        0.2226
     24 C         139.8655  140.2753  167.1900 C.3     1  UNL1        0.1200
     25 N         141.1533  140.5984  166.4918 N.3     1  UNL1       -0.2721
     26 C         142.3164  139.0202  164.7870 C.3     1  UNL1        0.0173
     27 C         142.1393  139.5078  166.1944 C.3     1  UNL1        0.0577
     28 C         142.9482  138.9049  167.3045 C.3     1  UNL1        0.0173
     29 C         141.4549  142.0120  166.0911 C.3     1  UNL1        0.0577
     30 C         142.8772  142.4825  166.0138 C.3     1  UNL1        0.0173
     31 C         140.3344  142.9552  165.7676 C.3     1  UNL1        0.0173
@<TRIPOS>BOND
     1    26    27    1
     2    27    28    1
     3    27    25    1
     4    25    24    1
     5    24    23    1
     6    23    22    1
     7    22     1    1
     8     1     2   ar
     9     2     3   ar
    10     3     4   ar
    11     4     7    1
    12     7     8   ar
    13     8     9   ar
    14     9    10   ar
    15    10    14    1
    16    14    15    1
    17    15    16    1
    18    16    17   ar
    19    17    18   ar
    20    18    19   ar
    21    19    20   ar
    22    20    21   ar
    23    10    11   ar
    24    11    12   ar
    25    12    13    2
    26     4     5   ar
    27     5     6   ar
    28    25    29    1
    29    29    30    1
    30    29    31    1
    31     6     1   ar
    32    12     7   ar
    33    21    16   ar
@<TRIPOS>MOLECULE
*****
 31 33 0 0 0
SMALL
GASTEIGER

@<TRIPOS>ATOM
      1 C         138.5952  139.8747  163.1390 C.ar    1  UNL1        0.1387
      2 C         138.1792  138.6409  162.3943 C.ar    1  UNL1        0.0384
      3 C         138.8989  138.2437  161.1396 C.ar    1  UNL1        0.0207
      4 C         140.0347  139.0803  160.6296 C.ar    1  UNL1        0.0671
      5 C         140.4507  140.3141  161.3743 C.ar    1  UNL1        0.0207
      6 C         139.7310  140.7113  162.6290 C.ar    1  UNL1        0.0384
      7 N         140.7544  138.6831  159.3749 N.ar    1  UNL1       -0.2729
      8 C         142.1430  138.1213  159.4526 C.ar    1  UNL1        0.0860
      9 C         142.8627  137.7241  158.1979 C.ar    1  UNL1        0.0561
     10 C         142.1938  137.8887  156.8655 C.ar    1  UNL1        0.1453
     11 C         140.8052  138.4505  156.7878 C.ar    1  UNL1        0.0980
     12 C         140.0855  138.8477  158.0425 C.ar    1  UNL1        0.2679
     13 O         138.6968  139.4096  157.9647 O.2     1  UNL1       -0.2665
     14 O         142.9135  137.4915  155.6108 O.3     1  UNL1       -0.4704
     15 C         143.8830  136.3472  155.6325 C.3     1  UNL1        0.2320
     16 C         143.3798  134.9404  155.7661 C.ar    1  UNL1        0.0212
     17 C         142.4674  134.3679  154.7221 C.ar    1  UNL1       -0.0007
     18 C         141.9643  132.9611  154.8557 C.ar    1  UNL1       -0.0002
     19 C         142.3735  132.1269  156.0332 C.ar    1  UNL1       -0.0000
     20 C         143.2859  132.6994  157.0771 C.ar    1  UNL1       -0.0002
     21 C         143.7890  134.1061  156.9436 C.ar    1  UNL1       -0.0007
     22 O         137.8755  140.2719  164.3937 O.3     1  UNL1       -0.4740
     23 C         138.1500  139.5462  165.6774 C.3     1  UNL1        0.2226
     24 C         139.2819  138.5652  165.7573 C.3     1  UNL1        0.1200
     25 N         140.6946  139.0574  165.8682 N.3     1  UNL1       -0.2721
     26 C         141.0089  140.2228  168.1689 C.3     1  UNL1        0.0173
     27 C         140.9992  140.2878  166.6704 C.3     1  UNL1        0.0577
     28 C         141.2943  141.5832  165.9739 C.3     1  UNL1        0.0173
     29 C         141.8024  138.3193  165.1770 C.3     1  UNL1        0.0577
     30 C         143.1897  138.3433  165.7472 C.3     1  UNL1        0.0173
     31 C         141.5231  137.5572  163.9156 C.3     1  UNL1        0.0173
@<TRIPOS>BOND
     1    26    27    1
     2    27    28    1
     3    27    25    1
     4    25    24    1
     5    24    23    1
     6    23    22    1
     7    22     1    1
     8     1     2   ar
     9     2     3   ar
    10     3     4   ar
    11     4     7    1
    12     7     8   ar
    13     8     9   ar
    14     9    10   ar
    15    10    14    1
    16    14    15    1
    17    15    16    1
    18    16    17   ar
    19    17    18   ar
    20    18    19   ar
    21    19    20   ar
    22    20    21   ar
    23    10    11   ar
    24    11    12   ar
    25    12    13    2
    26     4     5   ar
    27     5     6   ar
    28    25    29    1
    29    29    30    1
    30    29    31    1
    31     6     1   ar
    32    12     7   ar
    33    21    16   ar
