@<TRIPOS>MOLECULE
*****
 30 32 0 0 0
SMALL
GASTEIGER

@<TRIPOS>ATOM
      1 N         139.2977  138.8280  164.9046 N.4     1  UNL1        0.3055
      2 C         140.1378  137.5928  164.7687 C.3     1  UNL1        0.1708
      3 C         138.1774  139.7312  165.3280 C.3     1  UNL1        0.1139
      4 C         138.1555  141.1614  164.8763 C.3     1  UNL1        0.0879
      5 C         139.2539  141.6885  164.0013 C.ar    1  UNL1       -0.0026
      6 C         140.3742  140.7853  163.5779 C.ar    1  UNL1        0.0598
      7 S         141.3116  141.5810  162.7186 S.2     1  UNL1       -0.0709
      8 C         140.7706  142.9758  162.6109 C.ar    1  UNL1        0.0858
      9 C         139.4989  143.0423  163.4037 C.ar    1  UNL1        0.0694
     10 C         140.3961  139.3551  164.0296 C.3     1  UNL1        0.1425
     11 N         141.3921  144.1059  161.8449 N.am    1  UNL1       -0.2629
     12 C         141.0953  144.2747  160.3843 C.2     1  UNL1        0.3085
     13 O         140.1768  143.3134  159.6897 O.2     1  UNL1       -0.2521
     14 N         141.7167  145.4048  159.6184 N.am    1  UNL1       -0.2680
     15 H         141.9949  144.7368  162.3009 H       1  UNL1        0.1569
     16 H         142.3195  146.0357  160.0743 H       1  UNL1        0.1564
     17 C         141.4198  145.5736  158.1578 C.ar    1  UNL1        0.0516
     18 C         140.1509  146.2450  157.7231 C.ar    1  UNL1        0.0156
     19 C         139.8540  146.4138  156.2625 C.ar    1  UNL1        0.0127
     20 C         140.8260  145.9112  155.2366 C.ar    1  UNL1        0.0578
     21 CL        140.5291  146.0800  153.7760 Cl      1  UNL1       -0.0822
     22 C         142.0949  145.2397  155.6713 C.ar    1  UNL1        0.0127
     23 C         142.3918  145.0709  157.1319 C.ar    1  UNL1        0.0156
     24 C         138.6255  144.2504  163.5696 C.2     1  UNL1        0.2442
     25 N         137.8116  144.7521  162.4138 N.am    1  UNL1       -0.3253
     26 O         138.5659  144.9570  164.8914 O.2     1  UNL1       -0.2703
     27 H         137.8507  144.2883  161.5462 H       1  UNL1        0.1453
     28 H         137.2384  145.5450  162.5227 H       1  UNL1        0.1453
     29 C         137.7265  138.3709  166.9227 C.3     1  UNL1        0.0671
     30 C         138.4910  137.8720  165.7324 C.3     1  UNL1        0.1093
@<TRIPOS>UNITY_ATOM_ATTR
1 1
charge 1
@<TRIPOS>BOND
     1    29    30    1
     2    30     1    1
     3     1     2    1
     4     1     3    1
     5     3     4    1
     6     4     5    1
     7     5     6   ar
     8     6     7   ar
     9     7     8   ar
    10     8    11    1
    11    11    12   am
    12    12    13    2
    13    12    14   am
    14    14    17    1
    15    17    18   ar
    16    18    19   ar
    17    19    20   ar
    18    20    21    1
    19    20    22   ar
    20    22    23   ar
    21     8     9   ar
    22     9    24    1
    23    24    25   am
    24    24    26    2
    25     6    10    1
    26    10     1    1
    27     9     5   ar
    28    23    17   ar
    29    11    15    1
    30    14    16    1
    31    25    27    1
    32    25    28    1
@<TRIPOS>MOLECULE
*****
 30 32 0 0 0
SMALL
GASTEIGER

@<TRIPOS>ATOM
      1 N         140.5078  140.5364  165.6437 N.4     1  UNL1        0.3055
      2 C         141.6336  139.6284  166.0412 C.3     1  UNL1        0.1708
      3 C         139.1369  141.1430  165.5932 C.3     1  UNL1        0.1139
      4 C         138.8627  142.3021  164.6815 C.3     1  UNL1        0.0879
      5 C         139.9595  142.8547  163.8203 C.ar    1  UNL1       -0.0026
      6 C         141.3304  142.2481  163.8708 C.ar    1  UNL1        0.0598
      7 S         142.2058  143.0006  162.9128 S.2     1  UNL1       -0.0709
      8 C         141.3759  144.0722  162.2703 C.ar    1  UNL1        0.0858
      9 C         139.9876  143.9820  162.8311 C.ar    1  UNL1        0.0694
     10 C         141.6045  141.0890  164.7825 C.3     1  UNL1        0.1425
     11 N         141.8508  145.0605  161.2467 N.am    1  UNL1       -0.2629
     12 C         141.4745  144.8865  159.8051 C.2     1  UNL1        0.3085
     13 O         140.6232  143.7243  159.3872 O.2     1  UNL1       -0.2521
     14 N         141.9494  145.8747  158.7815 N.am    1  UNL1       -0.2680
     15 H         142.4095  145.8232  161.5210 H       1  UNL1        0.1569
     16 H         142.5081  146.6375  159.0558 H       1  UNL1        0.1564
     17 C         141.5730  145.7008  157.3399 C.ar    1  UNL1        0.0516
     18 C         142.4830  144.9514  156.4124 C.ar    1  UNL1        0.0156
     19 C         142.1066  144.7775  154.9708 C.ar    1  UNL1        0.0127
     20 C         140.8203  145.3529  154.4568 C.ar    1  UNL1        0.0578
     21 CL        140.4440  145.1789  153.0152 Cl      1  UNL1       -0.0822
     22 C         139.9104  146.1022  155.3843 C.ar    1  UNL1        0.0127
     23 C         140.2867  146.2762  156.8259 C.ar    1  UNL1        0.0156
     24 C         138.8305  144.8643  162.4668 C.2     1  UNL1        0.2442
     25 N         137.4267  144.4101  162.7374 N.am    1  UNL1       -0.3253
     26 O         139.0771  146.2007  161.8320 O.2     1  UNL1       -0.2703
     27 H         137.2648  143.5330  163.1541 H       1  UNL1        0.1453
     28 H         136.6673  144.9892  162.4983 H       1  UNL1        0.1453
     29 C         138.5839  138.8937  166.2355 C.3     1  UNL1        0.0671
     30 C         139.8020  139.6685  166.6430 C.3     1  UNL1        0.1093
@<TRIPOS>UNITY_ATOM_ATTR
1 1
charge 1
@<TRIPOS>BOND
     1    29    30    1
     2    30     1    1
     3     1     2    1
     4     1     3    1
     5     3     4    1
     6     4     5    1
     7     5     6   ar
     8     6     7   ar
     9     7     8   ar
    10     8    11    1
    11    11    12   am
    12    12    13    2
    13    12    14   am
    14    14    17    1
    15    17    18   ar
    16    18    19   ar
    17    19    20   ar
    18    20    21    1
    19    20    22   ar
    20    22    23   ar
    21     8     9   ar
    22     9    24    1
    23    24    25   am
    24    24    26    2
    25     6    10    1
    26    10     1    1
    27     9     5   ar
    28    23    17   ar
    29    11    15    1
    30    14    16    1
    31    25    27    1
    32    25    28    1
@<TRIPOS>MOLECULE
*****
 30 32 0 0 0
SMALL
GASTEIGER

@<TRIPOS>ATOM
      1 N         142.9702  138.9694  158.2948 N.4     1  UNL1        0.3055
      2 C         142.3470  137.7467  157.6893 C.3     1  UNL1        0.1708
      3 C         143.5971  140.3282  158.3974 C.3     1  UNL1        0.1139
      4 C         143.9969  140.8704  159.7376 C.3     1  UNL1        0.0879
      5 C         143.7699  140.0538  160.9752 C.ar    1  UNL1       -0.0026
      6 C         143.1430  138.6950  160.8725 C.ar    1  UNL1        0.0598
      7 S         143.0441  138.1244  162.2563 S.2     1  UNL1       -0.0709
      8 C         143.6099  139.1305  163.2141 C.ar    1  UNL1        0.0858
      9 C         144.0584  140.3230  162.4223 C.ar    1  UNL1        0.0694
     10 C         142.7432  138.1528  159.5323 C.3     1  UNL1        0.1425
     11 N         143.7096  138.9721  164.7024 N.am    1  UNL1       -0.2629
     12 C         142.8683  139.8246  165.6054 C.2     1  UNL1        0.3085
     13 O         141.9272  140.8355  165.0201 O.2     1  UNL1       -0.2521
     14 N         142.9680  139.6662  167.0937 N.am    1  UNL1       -0.2680
     15 H         144.3273  138.3087  165.0865 H       1  UNL1        0.1569
     16 H         143.5856  139.0028  167.4778 H       1  UNL1        0.1564
     17 C         142.1266  140.5187  167.9967 C.ar    1  UNL1        0.0516
     18 C         140.7645  140.0505  168.4153 C.ar    1  UNL1        0.0156
     19 C         139.9231  140.9030  169.3183 C.ar    1  UNL1        0.0127
     20 C         140.4439  142.2236  169.8027 C.ar    1  UNL1        0.0578
     21 CL        139.6025  143.0761  170.7057 Cl      1  UNL1       -0.0822
     22 C         141.8060  142.6918  169.3840 C.ar    1  UNL1        0.0127
     23 C         142.6474  141.8393  168.4810 C.ar    1  UNL1        0.0156
     24 C         144.6855  141.5664  162.9798 C.2     1  UNL1        0.2442
     25 N         143.8200  142.7062  163.4292 N.am    1  UNL1       -0.3253
     26 O         146.1779  141.6701  163.0880 O.2     1  UNL1       -0.2703
     27 H         142.8404  142.6382  163.3582 H       1  UNL1        0.1453
     28 H         144.2315  143.5222  163.7951 H       1  UNL1        0.1453
     29 C         144.2500  139.8450  156.2102 C.3     1  UNL1        0.0671
     30 C         142.9809  139.3614  156.8469 C.3     1  UNL1        0.1093
@<TRIPOS>UNITY_ATOM_ATTR
1 1
charge 1
@<TRIPOS>BOND
     1    29    30    1
     2    30     1    1
     3     1     2    1
     4     1     3    1
     5     3     4    1
     6     4     5    1
     7     5     6   ar
     8     6     7   ar
     9     7     8   ar
    10     8    11    1
    11    11    12   am
    12    12    13    2
    13    12    14   am
    14    14    17    1
    15    17    18   ar
    16    18    19   ar
    17    19    20   ar
    18    20    21    1
    19    20    22   ar
    20    22    23   ar
    21     8     9   ar
    22     9    24    1
    23    24    25   am
    24    24    26    2
    25     6    10    1
    26    10     1    1
    27     9     5   ar
    28    23    17   ar
    29    11    15    1
    30    14    16    1
    31    25    27    1
    32    25    28    1
@<TRIPOS>MOLECULE
*****
 30 32 0 0 0
SMALL
GASTEIGER

@<TRIPOS>ATOM
      1 N         141.7704  140.9474  168.4892 N.4     1  UNL1        0.3055
      2 C         140.9682  139.9193  169.2306 C.3     1  UNL1        0.1708
      3 C         142.4321  142.2539  168.1651 C.3     1  UNL1        0.1139
      4 C         143.2196  142.4016  166.8971 C.3     1  UNL1        0.0879
      5 C         143.3455  141.2427  165.9531 C.ar    1  UNL1       -0.0026
      6 C         142.6839  139.9361  166.2773 C.ar    1  UNL1        0.0598
      7 S         142.9809  138.9770  165.1628 S.2     1  UNL1       -0.0709
      8 C         143.8262  139.6908  164.1500 C.ar    1  UNL1        0.0858
      9 C         144.0516  141.0911  164.6384 C.ar    1  UNL1        0.0694
     10 C         141.8963  139.7885  167.5453 C.3     1  UNL1        0.1425
     11 N         144.3537  139.1070  162.8728 N.am    1  UNL1       -0.2629
     12 C         143.6111  139.3213  161.5873 C.2     1  UNL1        0.3085
     13 O         142.3411  140.1196  161.5789 O.2     1  UNL1       -0.2521
     14 N         144.1384  138.7375  160.3102 N.am    1  UNL1       -0.2680
     15 H         145.1872  138.5831  162.8784 H       1  UNL1        0.1569
     16 H         144.9719  138.2136  160.3157 H       1  UNL1        0.1564
     17 C         143.3958  138.9519  159.0247 C.ar    1  UNL1        0.0516
     18 C         143.6320  140.1958  158.2205 C.ar    1  UNL1        0.0156
     19 C         142.8894  140.4102  156.9350 C.ar    1  UNL1        0.0127
     20 C         141.9106  139.3806  156.4536 C.ar    1  UNL1        0.0578
     21 CL        141.1680  139.5949  155.1680 Cl      1  UNL1       -0.0822
     22 C         141.6744  138.1366  157.2577 C.ar    1  UNL1        0.0127
     23 C         142.4170  137.9223  158.5433 C.ar    1  UNL1        0.0156
     24 C         144.8438  142.1533  163.9355 C.2     1  UNL1        0.2442
     25 N         146.2464  141.8689  163.4862 N.am    1  UNL1       -0.3253
     26 O         144.2336  143.4999  163.6820 O.2     1  UNL1       -0.2703
     27 H         146.6470  140.9851  163.6525 H       1  UNL1        0.1453
     28 H         146.7664  142.5661  163.0248 H       1  UNL1        0.1453
     29 C         140.7823  143.1200  169.5157 C.3     1  UNL1        0.0671
     30 C         141.3659  141.7493  169.6907 C.3     1  UNL1        0.1093
@<TRIPOS>UNITY_ATOM_ATTR
1 1
charge 1
@<TRIPOS>BOND
     1    29    30    1
     2    30     1    1
     3     1     2    1
     4     1     3    1
     5     3     4    1
     6     4     5    1
     7     5     6   ar
     8     6     7   ar
     9     7     8   ar
    10     8    11    1
    11    11    12   am
    12    12    13    2
    13    12    14   am
    14    14    17    1
    15    17    18   ar
    16    18    19   ar
    17    19    20   ar
    18    20    21    1
    19    20    22   ar
    20    22    23   ar
    21     8     9   ar
    22     9    24    1
    23    24    25   am
    24    24    26    2
    25     6    10    1
    26    10     1    1
    27     9     5   ar
    28    23    17   ar
    29    11    15    1
    30    14    16    1
    31    25    27    1
    32    25    28    1
@<TRIPOS>MOLECULE
*****
 30 32 0 0 0
SMALL
GASTEIGER

@<TRIPOS>ATOM
      1 N         140.6035  144.6526  158.4801 N.4     1  UNL1        0.3055
      2 C         141.4053  145.8311  158.0128 C.3     1  UNL1        0.1708
      3 C         139.7970  143.3887  158.4335 C.3     1  UNL1        0.1139
      4 C         139.2827  142.7800  159.7043 C.3     1  UNL1        0.0879
      5 C         139.5748  143.4351  161.0216 C.ar    1  UNL1       -0.0026
      6 C         140.3812  144.6989  161.0682 C.ar    1  UNL1        0.0598
      7 S         140.5085  145.1150  162.5038 S.2     1  UNL1       -0.0709
      8 C         139.7806  144.1083  163.3444 C.ar    1  UNL1        0.0858
      9 C         139.2035  143.0700  162.4283 C.ar    1  UNL1        0.0694
     10 C         140.8956  145.3077  159.7975 C.3     1  UNL1        0.1425
     11 N         139.6522  144.1350  164.8387 N.am    1  UNL1       -0.2629
     12 C         140.3293  143.0847  165.6685 C.2     1  UNL1        0.3085
     13 O         141.1346  142.0077  165.0040 O.2     1  UNL1       -0.2521
     14 N         140.2010  143.1114  167.1627 N.am    1  UNL1       -0.2680
     15 H         139.1237  144.8419  165.2748 H       1  UNL1        0.1569
     16 H         139.6724  143.8183  167.5988 H       1  UNL1        0.1564
     17 C         140.8780  142.0612  167.9925 C.ar    1  UNL1        0.0516
     18 C         140.0785  140.9312  168.5704 C.ar    1  UNL1        0.0156
     19 C         140.7555  139.8810  169.4002 C.ar    1  UNL1        0.0127
     20 C         142.2320  139.9606  169.6521 C.ar    1  UNL1        0.0578
     21 CL        142.9090  138.9104  170.4819 Cl      1  UNL1       -0.0822
     22 C         143.0315  141.0906  169.0742 C.ar    1  UNL1        0.0127
     23 C         142.3545  142.1408  168.2444 C.ar    1  UNL1        0.0156
     24 C         138.3968  141.8763  162.8458 C.2     1  UNL1        0.2442
     25 N         139.0865  140.5941  163.2071 N.am    1  UNL1       -0.3253
     26 O         136.9005  141.9646  162.9019 O.2     1  UNL1       -0.2703
     27 H         140.0686  140.5361  163.1703 H       1  UNL1        0.1453
     28 H         138.5570  139.8107  163.4810 H       1  UNL1        0.1453
     29 C         139.3559  144.7060  156.2018 C.3     1  UNL1        0.0671
     30 C         140.5898  144.4067  157.0004 C.3     1  UNL1        0.1093
@<TRIPOS>UNITY_ATOM_ATTR
1 1
charge 1
@<TRIPOS>BOND
     1    29    30    1
     2    30     1    1
     3     1     2    1
     4     1     3    1
     5     3     4    1
     6     4     5    1
     7     5     6   ar
     8     6     7   ar
     9     7     8   ar
    10     8    11    1
    11    11    12   am
    12    12    13    2
    13    12    14   am
    14    14    17    1
    15    17    18   ar
    16    18    19   ar
    17    19    20   ar
    18    20    21    1
    19    20    22   ar
    20    22    23   ar
    21     8     9   ar
    22     9    24    1
    23    24    25   am
    24    24    26    2
    25     6    10    1
    26    10     1    1
    27     9     5   ar
    28    23    17   ar
    29    11    15    1
    30    14    16    1
    31    25    27    1
    32    25    28    1
@<TRIPOS>MOLECULE
*****
 30 32 0 0 0
SMALL
GASTEIGER

@<TRIPOS>ATOM
      1 N         138.6814  139.9629  158.5879 N.4     1  UNL1        0.3055
      2 C         137.5714  140.8463  158.1006 C.3     1  UNL1        0.1708
      3 C         139.8814  139.0632  158.5623 C.3     1  UNL1        0.1139
      4 C         140.4368  138.5172  159.8442 C.3     1  UNL1        0.0879
      5 C         139.7923  138.8707  161.1517 C.ar    1  UNL1       -0.0026
      6 C         138.5924  139.7704  161.1773 C.ar    1  UNL1        0.0598
      7 S         138.1726  139.9427  162.6071 S.2     1  UNL1       -0.0709
      8 C         139.1131  139.1496  163.4651 C.ar    1  UNL1        0.0858
      9 C         140.1142  138.4871  162.5656 C.ar    1  UNL1        0.0694
     10 C         138.0369  140.3165  159.8954 C.3     1  UNL1        0.1425
     11 N         139.0617  139.0384  164.9601 N.am    1  UNL1       -0.2629
     12 C         139.9236  139.9260  165.8082 C.2     1  UNL1        0.3085
     13 O         140.8369  140.9248  165.1613 O.2     1  UNL1       -0.2521
     14 N         139.8722  139.8149  167.3032 N.am    1  UNL1       -0.2680
     15 H         138.4623  138.3829  165.3847 H       1  UNL1        0.1569
     16 H         139.2728  139.1594  167.7278 H       1  UNL1        0.1564
     17 C         140.7341  140.7025  168.1513 C.ar    1  UNL1        0.0516
     18 C         140.2366  142.0547  168.5683 C.ar    1  UNL1        0.0156
     19 C         141.0985  142.9423  169.4164 C.ar    1  UNL1        0.0127
     20 C         142.4579  142.4777  169.8476 C.ar    1  UNL1        0.0578
     21 CL        143.3198  143.3653  170.6957 Cl      1  UNL1       -0.0822
     22 C         142.9555  141.1255  169.4306 C.ar    1  UNL1        0.0127
     23 C         142.0936  140.2379  168.5825 C.ar    1  UNL1        0.0156
     24 C         141.2395  137.5971  163.0032 C.2     1  UNL1        0.2442
     25 N         142.4923  137.5136  162.1826 N.am    1  UNL1       -0.3253
     26 O         141.1121  136.7906  164.2615 O.2     1  UNL1       -0.2703
     27 H         142.5760  138.0429  161.3567 H       1  UNL1        0.1453
     28 H         143.2309  136.9295  162.4698 H       1  UNL1        0.1453
     29 C         138.5274  141.0656  156.2405 C.3     1  UNL1        0.0671
     30 C         138.9405  139.9161  157.1111 C.3     1  UNL1        0.1093
@<TRIPOS>UNITY_ATOM_ATTR
1 1
charge 1
@<TRIPOS>BOND
     1    29    30    1
     2    30     1    1
     3     1     2    1
     4     1     3    1
     5     3     4    1
     6     4     5    1
     7     5     6   ar
     8     6     7   ar
     9     7     8   ar
    10     8    11    1
    11    11    12   am
    12    12    13    2
    13    12    14   am
    14    14    17    1
    15    17    18   ar
    16    18    19   ar
    17    19    20   ar
    18    20    21    1
    19    20    22   ar
    20    22    23   ar
    21     8     9   ar
    22     9    24    1
    23    24    25   am
    24    24    26    2
    25     6    10    1
    26    10     1    1
    27     9     5   ar
    28    23    17   ar
    29    11    15    1
    30    14    16    1
    31    25    27    1
    32    25    28    1
@<TRIPOS>MOLECULE
*****
 30 32 0 0 0
SMALL
GASTEIGER

@<TRIPOS>ATOM
      1 N         141.5014  142.4097  167.0845 N.4     1  UNL1        0.3055
      2 C         142.5867  141.6547  167.7931 C.3     1  UNL1        0.1708
      3 C         140.1834  143.0807  166.8343 C.3     1  UNL1        0.1139
      4 C         139.9125  143.7315  165.5103 C.3     1  UNL1        0.0879
      5 C         140.9596  143.7115  164.4365 C.ar    1  UNL1       -0.0026
      6 C         142.2776  143.0405  164.6867 C.ar    1  UNL1        0.0598
      7 S         143.1112  143.1795  163.4473 S.2     1  UNL1       -0.0709
      8 C         142.3083  143.9364  162.4312 C.ar    1  UNL1        0.0858
      9 C         140.9785  144.2651  163.0426 C.ar    1  UNL1        0.0694
     10 C         142.5485  142.3897  166.0107 C.3     1  UNL1        0.1425
     11 N         142.7564  144.3006  161.0468 N.am    1  UNL1       -0.2629
     12 C         143.0558  143.2227  160.0475 C.2     1  UNL1        0.3085
     13 O         142.9071  141.7806  160.4327 O.2     1  UNL1       -0.2521
     14 N         143.5039  143.5868  158.6631 N.am    1  UNL1       -0.2680
     15 H         142.8540  145.2471  160.7940 H       1  UNL1        0.1569
     16 H         143.6015  144.5333  158.4103 H       1  UNL1        0.1564
     17 C         143.8033  142.5090  157.6639 C.ar    1  UNL1        0.0516
     18 C         142.6868  141.8705  156.8922 C.ar    1  UNL1        0.0156
     19 C         142.9862  140.7926  155.8930 C.ar    1  UNL1        0.0127
     20 C         144.4022  140.3532  155.6654 C.ar    1  UNL1        0.0578
     21 CL        144.7016  139.2753  154.6662 Cl      1  UNL1       -0.0822
     22 C         145.5187  140.9916  156.4371 C.ar    1  UNL1        0.0127
     23 C         145.2193  142.0695  157.4364 C.ar    1  UNL1        0.0156
     24 C         139.8634  145.0158  162.3769 C.2     1  UNL1        0.2442
     25 N         140.0080  146.4827  162.0988 N.am    1  UNL1       -0.3253
     26 O         138.6038  144.2996  161.9892 O.2     1  UNL1       -0.2703
     27 H         140.8348  146.9528  162.3532 H       1  UNL1        0.1453
     28 H         139.2762  146.9753  161.6619 H       1  UNL1        0.1453
     29 C         140.4100  143.3285  169.2559 C.3     1  UNL1        0.0671
     30 C         140.8312  142.1676  168.4045 C.3     1  UNL1        0.1093
@<TRIPOS>UNITY_ATOM_ATTR
1 1
charge 1
@<TRIPOS>BOND
     1    29    30    1
     2    30     1    1
     3     1     2    1
     4     1     3    1
     5     3     4    1
     6     4     5    1
     7     5     6   ar
     8     6     7   ar
     9     7     8   ar
    10     8    11    1
    11    11    12   am
    12    12    13    2
    13    12    14   am
    14    14    17    1
    15    17    18   ar
    16    18    19   ar
    17    19    20   ar
    18    20    21    1
    19    20    22   ar
    20    22    23   ar
    21     8     9   ar
    22     9    24    1
    23    24    25   am
    24    24    26    2
    25     6    10    1
    26    10     1    1
    27     9     5   ar
    28    23    17   ar
    29    11    15    1
    30    14    16    1
    31    25    27    1
    32    25    28    1
@<TRIPOS>MOLECULE
*****
 30 32 0 0 0
SMALL
GASTEIGER

@<TRIPOS>ATOM
      1 N         141.9356  141.9822  169.1286 N.4     1  UNL1        0.3055
      2 C         143.2814  142.4491  169.5987 C.3     1  UNL1        0.1708
      3 C         140.4463  141.8187  169.0568 C.3     1  UNL1        0.1139
      4 C         139.8379  140.9437  168.0013 C.3     1  UNL1        0.0879
      5 C         140.7187  140.2320  167.0176 C.ar    1  UNL1       -0.0026
      6 C         142.2080  140.3955  167.0894 C.ar    1  UNL1        0.0598
      7 S         142.8178  139.5747  165.9919 S.2     1  UNL1       -0.0709
      8 C         141.7054  138.9040  165.2418 C.ar    1  UNL1        0.0858
      9 C         140.4080  139.3103  165.8758 C.ar    1  UNL1        0.0694
     10 C         142.8165  141.2706  168.1449 C.3     1  UNL1        0.1425
     11 N         141.8626  137.9879  164.0645 N.am    1  UNL1       -0.2629
     12 C         141.7455  138.5306  162.6710 C.2     1  UNL1        0.3085
     13 O         141.4711  139.9894  162.4549 O.2     1  UNL1       -0.2521
     14 N         141.9027  137.6146  161.4937 N.am    1  UNL1       -0.2680
     15 H         142.0427  137.0305  164.2063 H       1  UNL1        0.1569
     16 H         142.0827  136.6571  161.6355 H       1  UNL1        0.1564
     17 C         141.7855  138.1573  160.1002 C.ar    1  UNL1        0.0516
     18 C         143.0198  138.3957  159.2820 C.ar    1  UNL1        0.0156
     19 C         142.9026  138.9384  157.8885 C.ar    1  UNL1        0.0127
     20 C         141.5512  139.2427  157.3133 C.ar    1  UNL1        0.0578
     21 CL        141.4340  139.7854  155.9198 Cl      1  UNL1       -0.0822
     22 C         140.3169  139.0042  158.1316 C.ar    1  UNL1        0.0127
     23 C         140.4340  138.4615  159.5250 C.ar    1  UNL1        0.0156
     24 C         139.0402  138.8718  165.4438 C.2     1  UNL1        0.2442
     25 N         137.9334  139.8771  165.3235 N.am    1  UNL1       -0.3253
     26 O         138.7790  137.4280  165.1320 O.2     1  UNL1       -0.2703
     27 H         138.1048  140.8247  165.5281 H       1  UNL1        0.1453
     28 H         137.0356  139.5892  165.0399 H       1  UNL1        0.1453
     29 C         140.5281  143.9582  170.0584 C.3     1  UNL1        0.0671
     30 C         141.5222  142.8560  170.2756 C.3     1  UNL1        0.1093
@<TRIPOS>UNITY_ATOM_ATTR
1 1
charge 1
@<TRIPOS>BOND
     1    29    30    1
     2    30     1    1
     3     1     2    1
     4     1     3    1
     5     3     4    1
     6     4     5    1
     7     5     6   ar
     8     6     7   ar
     9     7     8   ar
    10     8    11    1
    11    11    12   am
    12    12    13    2
    13    12    14   am
    14    14    17    1
    15    17    18   ar
    16    18    19   ar
    17    19    20   ar
    18    20    21    1
    19    20    22   ar
    20    22    23   ar
    21     8     9   ar
    22     9    24    1
    23    24    25   am
    24    24    26    2
    25     6    10    1
    26    10     1    1
    27     9     5   ar
    28    23    17   ar
    29    11    15    1
    30    14    16    1
    31    25    27    1
    32    25    28    1
@<TRIPOS>MOLECULE
*****
 30 32 0 0 0
SMALL
GASTEIGER

@<TRIPOS>ATOM
      1 N         141.2131  141.3932  168.7352 N.4     1  UNL1        0.3055
      2 C         142.0753  142.3334  169.5244 C.3     1  UNL1        0.1708
      3 C         140.4656  140.1500  168.3538 C.3     1  UNL1        0.1139
      4 C         139.6874  140.1061  167.0723 C.3     1  UNL1        0.0879
      5 C         139.6567  141.3055  166.1720 C.ar    1  UNL1       -0.0026
      6 C         140.4042  142.5487  166.5533 C.ar    1  UNL1        0.0598
      7 S         140.1910  143.5675  165.4731 S.2     1  UNL1       -0.0709
      8 C         139.3117  142.9538  164.4242 C.ar    1  UNL1        0.0858
      9 C         138.9815  141.5558  164.8562 C.ar    1  UNL1        0.0694
     10 C         141.1824  142.5926  167.8349 C.3     1  UNL1        0.1425
     11 N         138.8447  143.6210  163.1645 N.am    1  UNL1       -0.2629
     12 C         139.7056  143.5913  161.9365 C.2     1  UNL1        0.3085
     13 O         141.0336  142.8944  161.9683 O.2     1  UNL1       -0.2521
     14 N         139.2386  144.2584  160.6769 N.am    1  UNL1       -0.2680
     15 H         137.9731  144.0783  163.1437 H       1  UNL1        0.1569
     16 H         138.3670  144.7157  160.6560 H       1  UNL1        0.1564
     17 C         140.0995  144.2287  159.4489 C.ar    1  UNL1        0.0516
     18 C         141.0806  145.3343  159.1938 C.ar    1  UNL1        0.0156
     19 C         141.9415  145.3046  157.9659 C.ar    1  UNL1        0.0127
     20 C         141.8214  144.1693  156.9929 C.ar    1  UNL1        0.0578
     21 CL        142.6823  144.1396  155.7650 Cl      1  UNL1       -0.0822
     22 C         140.8403  143.0637  157.2480 C.ar    1  UNL1        0.0127
     23 C         139.9794  143.0934  158.4759 C.ar    1  UNL1        0.0156
     24 C         138.1262  140.5795  164.1043 C.2     1  UNL1        0.2442
     25 N         136.8431  141.0356  163.4753 N.am    1  UNL1       -0.3253
     26 O         138.5540  139.1471  163.9812 O.2     1  UNL1       -0.2703
     27 H         136.5623  141.9758  163.5561 H       1  UNL1        0.1453
     28 H         136.2818  140.3948  162.9818 H       1  UNL1        0.1453
     29 C         142.1463  139.1645  169.6901 C.3     1  UNL1        0.0671
     30 C         141.5433  140.5203  169.9095 C.3     1  UNL1        0.1093
@<TRIPOS>UNITY_ATOM_ATTR
1 1
charge 1
@<TRIPOS>BOND
     1    29    30    1
     2    30     1    1
     3     1     2    1
     4     1     3    1
     5     3     4    1
     6     4     5    1
     7     5     6   ar
     8     6     7   ar
     9     7     8   ar
    10     8    11    1
    11    11    12   am
    12    12    13    2
    13    12    14   am
    14    14    17    1
    15    17    18   ar
    16    18    19   ar
    17    19    20   ar
    18    20    21    1
    19    20    22   ar
    20    22    23   ar
    21     8     9   ar
    22     9    24    1
    23    24    25   am
    24    24    26    2
    25     6    10    1
    26    10     1    1
    27     9     5   ar
    28    23    17   ar
    29    11    15    1
    30    14    16    1
    31    25    27    1
    32    25    28    1
