@<TRIPOS>MOLECULE
*****
 40 43 0 0 0
SMALL
GASTEIGER

@<TRIPOS>ATOM
      1 C         141.7083  143.3118  161.6429 C.ar    1  UNL1        0.0674
      2 C         143.1548  142.9586  161.8242 C.ar    1  UNL1        0.1133
      3 N         143.6566  142.5180  163.1673 N.ar    1  UNL1       -0.2425
      4 C         142.7119  142.4306  164.3292 C.ar    1  UNL1        0.0825
      5 C         143.2137  141.9900  165.6724 C.ar    1  UNL1        0.0230
      6 C         142.2690  141.9025  166.8342 C.ar    1  UNL1        0.0741
      7 C         140.8225  142.2557  166.6529 C.ar    1  UNL1        0.0183
      8 C         140.3207  142.6963  165.3097 C.ar    1  UNL1        0.0463
      9 C         141.2654  142.7837  164.1479 C.ar    1  UNL1        0.0320
     10 C         140.7636  143.2243  162.8048 C.ar    1  UNL1        0.0188
     11 C         139.7009  145.0741  156.2703 C.2     1  UNL1        0.2490
     12 O         138.9685  144.1062  155.3889 O.2     1  UNL1       -0.2699
     13 N         140.2027  144.6335  157.6134 N.am    1  UNL1       -0.2726
     14 C         140.9351  145.6014  158.4948 C.3     1  UNL1        0.1151
     15 C         141.4370  145.1608  159.8380 C.3     1  UNL1        0.1124
     16 N         141.2064  143.7524  160.2997 N.pl3   1  UNL1       -0.3028
     17 C         140.4740  142.7845  159.4183 C.3     1  UNL1        0.1124
     18 C         139.9722  143.2251  158.0752 C.3     1  UNL1        0.1151
     19 C         138.7720  147.4228  155.6612 C.2     1  UNL1       -0.0041
     20 C         139.9314  146.4825  155.8086 C.2     1  UNL1        0.0548
     21 C         139.0025  148.8312  155.1995 C.3     1  UNL1        0.0991
     22 C         138.5665  151.3739  155.5071 C.3     1  UNL1        0.0899
     23 N         138.5866  149.9823  156.0667 N.3     1  UNL1       -0.2665
     24 C         138.1908  149.7418  157.4934 C.3     1  UNL1        0.0899
     25 C         142.7708  141.4619  168.1773 C.3     1  UNL1        0.4187
     26 F         143.2727  141.0213  169.5205 F       1  UNL1       -0.1659
     27 F         142.9952  140.0796  167.6401 F       1  UNL1       -0.1659
     28 F         142.5465  142.8443  168.7146 F       1  UNL1       -0.1659
     29 N         138.8742  143.0494  165.1285 N.pl3   1  UNL1       -0.3290
     30 H         138.5611  143.9609  165.3296 H       1  UNL1        0.1471
     31 C         137.9048  142.0139  164.6406 C.3     1  UNL1        0.1145
     32 C         138.2905  140.5643  164.6450 C.ar    1  UNL1        0.0035
     33 C         138.1022  139.7418  165.8851 C.ar    1  UNL1       -0.0022
     34 C         138.4879  138.2923  165.8895 C.ar    1  UNL1        0.0060
     35 C         139.0620  137.6652  164.6536 C.ar    1  UNL1        0.0752
     36 C         139.2504  138.4877  163.4135 C.ar    1  UNL1        0.2898
     37 C         138.8646  139.9373  163.4092 C.ar    1  UNL1        0.0727
     38 N         139.8245  137.8607  162.1777 N.pl3   1  UNL1        0.0809
     39 O         141.1614  137.1827  162.2324 O.2     1  UNL1        0.0415
     40 O         139.0617  137.9118  160.8872 O.co2   1  UNL1       -0.5760
@<TRIPOS>UNITY_ATOM_ATTR
38 1
charge 1
40 1
charge -1
@<TRIPOS>BOND
     1    22    23    1
     2    23    24    1
     3    23    21    1
     4    21    19    1
     5    19    20    2
     6    20    11    1
     7    11    12    2
     8    11    13   am
     9    13    14    1
    10    14    15    1
    11    15    16    1
    12    16     1    1
    13     1     2   ar
    14     2     3   ar
    15     3     4   ar
    16     4     5   ar
    17     5     6   ar
    18     6    25    1
    19    25    26    1
    20    25    27    1
    21    25    28    1
    22     6     7   ar
    23     7     8   ar
    24     8    29    1
    25    29    31    1
    26    31    32    1
    27    32    33   ar
    28    33    34   ar
    29    34    35   ar
    30    35    36   ar
    31    36    38    1
    32    38    39    2
    33    38    40    1
    34    36    37   ar
    35     8     9   ar
    36     9    10   ar
    37    16    17    1
    38    17    18    1
    39    18    13    1
    40    10     1   ar
    41     9     4   ar
    42    37    32   ar
    43    29    30    1
@<TRIPOS>MOLECULE
*****
 40 43 0 0 0
SMALL
GASTEIGER

@<TRIPOS>ATOM
      1 C         143.1374  140.2167  162.1752 C.ar    1  UNL1        0.0674
      2 C         144.2434  139.8085  163.1027 C.ar    1  UNL1        0.1133
      3 N         144.2017  140.2174  164.5452 N.ar    1  UNL1       -0.2425
      4 C         143.0541  141.0344  165.0604 C.ar    1  UNL1        0.0825
      5 C         143.0125  141.4433  166.5030 C.ar    1  UNL1        0.0230
      6 C         141.8649  142.2604  167.0181 C.ar    1  UNL1        0.0741
      7 C         140.7589  142.6686  166.0906 C.ar    1  UNL1        0.0183
      8 C         140.8005  142.2597  164.6481 C.ar    1  UNL1        0.0463
      9 C         141.9481  141.4426  164.1329 C.ar    1  UNL1        0.0320
     10 C         141.9898  141.0337  162.6904 C.ar    1  UNL1        0.0188
     11 C         143.3039  138.5813  156.4048 C.2     1  UNL1        0.2490
     12 O         143.7389  139.5645  155.3588 O.2     1  UNL1       -0.2699
     13 N         143.2623  138.9901  157.8473 N.am    1  UNL1       -0.2726
     14 C         142.8273  138.0068  158.8933 C.3     1  UNL1        0.1151
     15 C         142.7857  138.4157  160.3359 C.3     1  UNL1        0.1124
     16 N         143.1790  139.8078  160.7326 N.pl3   1  UNL1       -0.3028
     17 C         143.6140  140.7910  159.6866 C.3     1  UNL1        0.1124
     18 C         143.6556  140.3822  158.2441 C.3     1  UNL1        0.1151
     19 C         143.9658  136.1841  155.6529 C.2     1  UNL1       -0.0041
     20 C         142.9105  137.1892  156.0081 C.2     1  UNL1        0.0548
     21 C         143.5724  134.7920  155.2563 C.3     1  UNL1        0.0991
     22 C         143.6963  133.9053  157.6952 C.3     1  UNL1        0.0899
     23 N         143.7626  133.6563  156.2175 N.3     1  UNL1       -0.2665
     24 C         144.0191  132.2716  155.7010 C.3     1  UNL1        0.0899
     25 C         141.8232  142.6693  168.4607 C.3     1  UNL1        0.4187
     26 F         141.7815  143.0782  169.9033 F       1  UNL1       -0.1659
     27 F         140.4144  143.1524  168.2831 F       1  UNL1       -0.1659
     28 F         143.2321  142.1861  168.6383 F       1  UNL1       -0.1659
     29 N         139.6946  142.6679  163.7206 N.pl3   1  UNL1       -0.3290
     30 H         139.6951  143.5670  163.3196 H       1  UNL1        0.1471
     31 C         138.5878  141.7062  163.4042 C.3     1  UNL1        0.1145
     32 C         138.5913  140.3334  164.0088 C.ar    1  UNL1        0.0035
     33 C         139.0218  139.1537  163.1884 C.ar    1  UNL1       -0.0022
     34 C         139.0254  137.7810  163.7929 C.ar    1  UNL1        0.0060
     35 C         138.5984  137.5878  165.2179 C.ar    1  UNL1        0.0752
     36 C         138.1678  138.7675  166.0383 C.ar    1  UNL1        0.2898
     37 C         138.1643  140.1403  165.4337 C.ar    1  UNL1        0.0727
     38 N         137.7409  138.5744  167.4632 N.pl3   1  UNL1        0.0809
     39 O         138.3880  139.3739  168.5550 O.2     1  UNL1        0.0415
     40 O         136.6667  137.5818  167.7962 O.co2   1  UNL1       -0.5760
@<TRIPOS>UNITY_ATOM_ATTR
38 1
charge 1
40 1
charge -1
@<TRIPOS>BOND
     1    22    23    1
     2    23    24    1
     3    23    21    1
     4    21    19    1
     5    19    20    2
     6    20    11    1
     7    11    12    2
     8    11    13   am
     9    13    14    1
    10    14    15    1
    11    15    16    1
    12    16     1    1
    13     1     2   ar
    14     2     3   ar
    15     3     4   ar
    16     4     5   ar
    17     5     6   ar
    18     6    25    1
    19    25    26    1
    20    25    27    1
    21    25    28    1
    22     6     7   ar
    23     7     8   ar
    24     8    29    1
    25    29    31    1
    26    31    32    1
    27    32    33   ar
    28    33    34   ar
    29    34    35   ar
    30    35    36   ar
    31    36    38    1
    32    38    39    2
    33    38    40    1
    34    36    37   ar
    35     8     9   ar
    36     9    10   ar
    37    16    17    1
    38    17    18    1
    39    18    13    1
    40    10     1   ar
    41     9     4   ar
    42    37    32   ar
    43    29    30    1
@<TRIPOS>MOLECULE
*****
 40 43 0 0 0
SMALL
GASTEIGER

@<TRIPOS>ATOM
      1 C         141.3281  139.7372  161.1837 C.ar    1  UNL1        0.0674
      2 C         140.9670  138.2845  161.0869 C.ar    1  UNL1        0.1133
      3 N         140.1736  137.6344  162.1813 N.ar    1  UNL1       -0.2425
      4 C         139.7412  138.4370  163.3725 C.ar    1  UNL1        0.0825
      5 C         138.9478  137.7867  164.4670 C.ar    1  UNL1        0.0230
      6 C         138.5154  138.5893  165.6582 C.ar    1  UNL1        0.0741
      7 C         138.8765  140.0420  165.7549 C.ar    1  UNL1        0.0183
      8 C         139.6699  140.6921  164.6605 C.ar    1  UNL1        0.0463
      9 C         140.1023  139.8896  163.4693 C.ar    1  UNL1        0.0320
     10 C         140.8957  140.5397  162.3749 C.ar    1  UNL1        0.0188
     11 C         144.5017  142.3380  156.8060 C.2     1  UNL1        0.2490
     12 O         143.7960  143.0000  155.6598 O.2     1  UNL1       -0.2699
     13 N         143.7083  141.6878  157.9004 N.am    1  UNL1       -0.2726
     14 C         144.4140  141.0258  159.0466 C.3     1  UNL1        0.1151
     15 C         143.6205  140.3756  160.1410 C.3     1  UNL1        0.1124
     16 N         142.1215  140.3874  160.0892 N.pl3   1  UNL1       -0.3028
     17 C         141.4158  141.0494  158.9430 C.3     1  UNL1        0.1124
     18 C         142.2092  141.6996  157.8486 C.3     1  UNL1        0.1151
     19 C         146.7870  141.7887  155.6988 C.2     1  UNL1       -0.0041
     20 C         146.0007  142.3261  156.8577 C.2     1  UNL1        0.0548
     21 C         148.2860  141.7769  155.7506 C.3     1  UNL1        0.0991
     22 C         150.4694  141.5934  154.3544 C.3     1  UNL1        0.0899
     23 N         149.0815  142.1347  154.5303 N.3     1  UNL1       -0.2665
     24 C         148.4890  143.0336  153.4858 C.3     1  UNL1        0.0899
     25 C         137.7220  137.9392  166.7526 C.3     1  UNL1        0.4187
     26 F         136.9285  137.2890  167.8471 F       1  UNL1       -0.1659
     27 F         137.5463  139.2723  167.4172 F       1  UNL1       -0.1659
     28 F         137.8977  136.6060  166.0880 F       1  UNL1       -0.1659
     29 N         140.0309  142.1448  164.7573 N.pl3   1  UNL1       -0.3290
     30 H         139.4823  142.8201  164.2966 H       1  UNL1        0.1471
     31 C         141.2277  142.5686  165.5561 C.3     1  UNL1        0.1145
     32 C         141.4606  141.9923  166.9213 C.ar    1  UNL1        0.0035
     33 C         142.3178  140.7722  167.0841 C.ar    1  UNL1       -0.0022
     34 C         142.5506  140.1959  168.4493 C.ar    1  UNL1        0.0060
     35 C         141.9263  140.8398  169.6517 C.ar    1  UNL1        0.0752
     36 C         141.0691  142.0599  169.4889 C.ar    1  UNL1        0.2898
     37 C         140.8363  142.6362  168.1237 C.ar    1  UNL1        0.0727
     38 N         140.4448  142.7038  170.6912 N.pl3   1  UNL1        0.0809
     39 O         140.5511  142.0453  172.0347 O.2     1  UNL1        0.0415
     40 O         139.7143  144.0062  170.5500 O.co2   1  UNL1       -0.5760
@<TRIPOS>UNITY_ATOM_ATTR
38 1
charge 1
40 1
charge -1
@<TRIPOS>BOND
     1    22    23    1
     2    23    24    1
     3    23    21    1
     4    21    19    1
     5    19    20    2
     6    20    11    1
     7    11    12    2
     8    11    13   am
     9    13    14    1
    10    14    15    1
    11    15    16    1
    12    16     1    1
    13     1     2   ar
    14     2     3   ar
    15     3     4   ar
    16     4     5   ar
    17     5     6   ar
    18     6    25    1
    19    25    26    1
    20    25    27    1
    21    25    28    1
    22     6     7   ar
    23     7     8   ar
    24     8    29    1
    25    29    31    1
    26    31    32    1
    27    32    33   ar
    28    33    34   ar
    29    34    35   ar
    30    35    36   ar
    31    36    38    1
    32    38    39    2
    33    38    40    1
    34    36    37   ar
    35     8     9   ar
    36     9    10   ar
    37    16    17    1
    38    17    18    1
    39    18    13    1
    40    10     1   ar
    41     9     4   ar
    42    37    32   ar
    43    29    30    1
@<TRIPOS>MOLECULE
*****
 40 43 0 0 0
SMALL
GASTEIGER

@<TRIPOS>ATOM
      1 C         143.4260  141.5531  162.5691 C.ar    1  UNL1        0.0674
      2 C         144.4626  141.3210  163.6281 C.ar    1  UNL1        0.1133
      3 N         144.1182  141.5294  165.0730 N.ar    1  UNL1       -0.2425
      4 C         142.7372  141.9698  165.4590 C.ar    1  UNL1        0.0825
      5 C         142.3929  142.1781  166.9040 C.ar    1  UNL1        0.0230
      6 C         141.0119  142.6186  167.2900 C.ar    1  UNL1        0.0741
      7 C         139.9753  142.8507  166.2309 C.ar    1  UNL1        0.0183
      8 C         140.3197  142.6423  164.7859 C.ar    1  UNL1        0.0463
      9 C         141.7006  142.2019  164.4000 C.ar    1  UNL1        0.0320
     10 C         142.0450  141.9936  162.9550 C.ar    1  UNL1        0.0188
     11 C         144.8033  140.7197  156.7890 C.2     1  UNL1        0.2490
     12 O         144.5329  139.3963  156.1369 O.2     1  UNL1       -0.2699
     13 N         144.4590  140.9281  158.2340 N.am    1  UNL1       -0.2726
     14 C         144.7294  142.2516  158.8861 C.3     1  UNL1        0.1151
     15 C         144.3851  142.4599  160.3312 C.3     1  UNL1        0.1124
     16 N         143.7703  141.3448  161.1240 N.pl3   1  UNL1       -0.3028
     17 C         143.4999  140.0213  160.4719 C.3     1  UNL1        0.1124
     18 C         143.8442  139.8130  159.0269 C.3     1  UNL1        0.1151
     19 C         146.9045  141.8860  155.8017 C.2     1  UNL1       -0.0041
     20 C         145.4180  141.8349  155.9962 C.2     1  UNL1        0.0548
     21 C         147.5193  143.0011  155.0089 C.3     1  UNL1        0.0991
     22 C         147.6231  141.5021  152.8894 C.3     1  UNL1        0.0899
     23 N         148.0402  142.7400  153.6267 N.3     1  UNL1       -0.2665
     24 C         148.9782  143.7169  152.9818 C.3     1  UNL1        0.0899
     25 C         140.6675  142.8269  168.7349 C.3     1  UNL1        0.4187
     26 F         140.3232  143.0352  170.1800 F       1  UNL1       -0.1659
     27 F         141.4288  141.5857  169.0953 F       1  UNL1       -0.1659
     28 F         139.9063  144.0681  168.3746 F       1  UNL1       -0.1659
     29 N         139.2831  142.8744  163.7269 N.pl3   1  UNL1       -0.3290
     30 H         139.2155  143.7533  163.2885 H       1  UNL1        0.1471
     31 C         138.3494  141.7675  163.3359 C.3     1  UNL1        0.1145
     32 C         138.5072  140.4042  163.9415 C.ar    1  UNL1        0.0035
     33 C         139.1112  139.2915  163.1370 C.ar    1  UNL1       -0.0022
     34 C         139.2690  137.9283  163.7426 C.ar    1  UNL1        0.0060
     35 C         138.8227  137.6777  165.1526 C.ar    1  UNL1        0.0752
     36 C         138.2187  138.7904  165.9570 C.ar    1  UNL1        0.2898
     37 C         138.0609  140.1536  165.3514 C.ar    1  UNL1        0.0727
     38 N         137.7724  138.5398  167.3670 N.pl3   1  UNL1        0.0809
     39 O         136.7417  137.4879  167.6517 O.2     1  UNL1        0.0415
     40 O         138.3569  139.3412  168.4922 O.co2   1  UNL1       -0.5760
@<TRIPOS>UNITY_ATOM_ATTR
38 1
charge 1
40 1
charge -1
@<TRIPOS>BOND
     1    22    23    1
     2    23    24    1
     3    23    21    1
     4    21    19    1
     5    19    20    2
     6    20    11    1
     7    11    12    2
     8    11    13   am
     9    13    14    1
    10    14    15    1
    11    15    16    1
    12    16     1    1
    13     1     2   ar
    14     2     3   ar
    15     3     4   ar
    16     4     5   ar
    17     5     6   ar
    18     6    25    1
    19    25    26    1
    20    25    27    1
    21    25    28    1
    22     6     7   ar
    23     7     8   ar
    24     8    29    1
    25    29    31    1
    26    31    32    1
    27    32    33   ar
    28    33    34   ar
    29    34    35   ar
    30    35    36   ar
    31    36    38    1
    32    38    39    2
    33    38    40    1
    34    36    37   ar
    35     8     9   ar
    36     9    10   ar
    37    16    17    1
    38    17    18    1
    39    18    13    1
    40    10     1   ar
    41     9     4   ar
    42    37    32   ar
    43    29    30    1
@<TRIPOS>MOLECULE
*****
 40 43 0 0 0
SMALL
GASTEIGER

@<TRIPOS>ATOM
      1 C         142.7920  140.5333  163.4693 C.ar    1  UNL1        0.0674
      2 C         143.8126  141.4779  164.0314 C.ar    1  UNL1        0.1133
      3 N         143.7268  141.9079  165.4658 N.ar    1  UNL1       -0.2425
      4 C         142.6204  141.3932  166.3382 C.ar    1  UNL1        0.0825
      5 C         142.5346  141.8233  167.7727 C.ar    1  UNL1        0.0230
      6 C         141.4283  141.3086  168.6451 C.ar    1  UNL1        0.0741
      7 C         140.4076  140.3639  168.0829 C.ar    1  UNL1        0.0183
      8 C         140.4934  139.9339  166.6485 C.ar    1  UNL1        0.0463
      9 C         141.5998  140.4486  165.7761 C.ar    1  UNL1        0.0320
     10 C         141.6856  140.0186  164.3416 C.ar    1  UNL1        0.0188
     11 C         143.1351  138.8133  157.7313 C.2     1  UNL1        0.2490
     12 O         144.0633  139.5222  156.7901 O.2     1  UNL1       -0.2699
     13 N         143.0493  139.2432  159.1658 N.am    1  UNL1       -0.2726
     14 C         142.1212  138.5343  160.1070 C.3     1  UNL1        0.1151
     15 C         142.0354  138.9643  161.5416 C.3     1  UNL1        0.1124
     16 N         142.8778  140.1032  162.0348 N.pl3   1  UNL1       -0.3028
     17 C         143.8059  140.8122  161.0935 C.3     1  UNL1        0.1124
     18 C         143.8917  140.3822  159.6590 C.3     1  UNL1        0.1151
     19 C         142.9457  136.4158  156.7483 C.2     1  UNL1       -0.0041
     20 C         142.2928  137.6743  157.2381 C.2     1  UNL1        0.0548
     21 C         142.1033  135.2769  156.2551 C.3     1  UNL1        0.0991
     22 C         143.6835  133.5646  157.4046 C.3     1  UNL1        0.0899
     23 N         142.5646  133.8631  156.4511 N.3     1  UNL1       -0.2665
     24 C         141.9071  132.7478  155.6937 C.3     1  UNL1        0.0899
     25 C         141.3424  141.7386  170.0795 C.3     1  UNL1        0.4187
     26 F         141.2566  142.1687  171.5141 F       1  UNL1       -0.1659
     27 F         141.3082  143.1745  169.6471 F       1  UNL1       -0.1659
     28 F         141.3767  140.3027  170.5120 F       1  UNL1       -0.1659
     29 N         139.4728  138.9893  166.0864 N.pl3   1  UNL1       -0.3290
     30 H         139.6708  138.0265  166.0314 H       1  UNL1        0.1471
     31 C         138.1505  139.5116  165.6081 C.3     1  UNL1        0.1145
     32 C         138.0888  140.4124  164.4102 C.ar    1  UNL1        0.0035
     33 C         137.9409  139.8259  163.0376 C.ar    1  UNL1       -0.0022
     34 C         137.8791  140.7267  161.8398 C.ar    1  UNL1        0.0060
     35 C         137.9654  142.2140  162.0146 C.ar    1  UNL1        0.0752
     36 C         138.1134  142.8005  163.3872 C.ar    1  UNL1        0.2898
     37 C         138.1751  141.8997  164.5851 C.ar    1  UNL1        0.0727
     38 N         138.1996  144.2877  163.5620 N.pl3   1  UNL1        0.0809
     39 O         138.3292  144.8751  164.9362 O.2     1  UNL1        0.0415
     40 O         138.1563  145.1876  162.3628 O.co2   1  UNL1       -0.5760
@<TRIPOS>UNITY_ATOM_ATTR
38 1
charge 1
40 1
charge -1
@<TRIPOS>BOND
     1    22    23    1
     2    23    24    1
     3    23    21    1
     4    21    19    1
     5    19    20    2
     6    20    11    1
     7    11    12    2
     8    11    13   am
     9    13    14    1
    10    14    15    1
    11    15    16    1
    12    16     1    1
    13     1     2   ar
    14     2     3   ar
    15     3     4   ar
    16     4     5   ar
    17     5     6   ar
    18     6    25    1
    19    25    26    1
    20    25    27    1
    21    25    28    1
    22     6     7   ar
    23     7     8   ar
    24     8    29    1
    25    29    31    1
    26    31    32    1
    27    32    33   ar
    28    33    34   ar
    29    34    35   ar
    30    35    36   ar
    31    36    38    1
    32    38    39    2
    33    38    40    1
    34    36    37   ar
    35     8     9   ar
    36     9    10   ar
    37    16    17    1
    38    17    18    1
    39    18    13    1
    40    10     1   ar
    41     9     4   ar
    42    37    32   ar
    43    29    30    1
@<TRIPOS>MOLECULE
*****
 40 43 0 0 0
SMALL
GASTEIGER

@<TRIPOS>ATOM
      1 C         139.7174  142.4361  163.5525 C.ar    1  UNL1        0.0674
      2 C         140.4827  143.4941  164.2906 C.ar    1  UNL1        0.1133
      3 N         140.7379  143.3467  165.7613 N.ar    1  UNL1       -0.2425
      4 C         140.2279  142.1413  166.4939 C.ar    1  UNL1        0.0825
      5 C         140.4831  141.9939  167.9647 C.ar    1  UNL1        0.0230
      6 C         139.9731  140.7884  168.6973 C.ar    1  UNL1        0.0741
      7 C         139.2077  139.7304  167.9591 C.ar    1  UNL1        0.0183
      8 C         138.9525  139.8778  166.4884 C.ar    1  UNL1        0.0463
      9 C         139.4626  141.0833  165.7558 C.ar    1  UNL1        0.0320
     10 C         139.2073  141.2307  164.2851 C.ar    1  UNL1        0.0188
     11 C         138.6964  143.0258  157.6694 C.2     1  UNL1        0.2490
     12 O         139.4006  144.0963  156.8896 O.2     1  UNL1       -0.2699
     13 N         138.9516  142.8784  159.1401 N.am    1  UNL1       -0.2726
     14 C         138.2475  141.8078  159.9200 C.3     1  UNL1        0.1151
     15 C         138.5027  141.6604  161.3908 C.3     1  UNL1        0.1124
     16 N         139.4621  142.5835  162.0817 N.pl3   1  UNL1       -0.3028
     17 C         140.1663  143.6541  161.3019 C.3     1  UNL1        0.1124
     18 C         139.9111  143.8015  159.8311 C.3     1  UNL1        0.1151
     19 C         138.2558  140.9704  156.1426 C.2     1  UNL1       -0.0041
     20 C         137.7370  142.1027  156.9785 C.2     1  UNL1        0.0548
     21 C         137.2964  140.0473  155.4517 C.3     1  UNL1        0.0991
     22 C         139.0746  138.1533  155.4832 C.3     1  UNL1        0.0899
     23 N         137.7423  138.6770  155.0351 N.3     1  UNL1       -0.2665
     24 C         136.8559  137.8305  154.1704 C.3     1  UNL1        0.0899
     25 C         140.2283  140.6410  170.1681 C.3     1  UNL1        0.4187
     26 F         140.4835  140.4936  171.6389 F       1  UNL1       -0.1659
     27 F         139.4904  141.9215  170.4245 F       1  UNL1       -0.1659
     28 F         140.9662  139.3605  169.9116 F       1  UNL1       -0.1659
     29 N         138.1872  138.8198  165.7503 N.pl3   1  UNL1       -0.3290
     30 H         137.2086  138.8882  165.6665 H       1  UNL1        0.1471
     31 C         138.9127  137.6575  165.1399 C.3     1  UNL1        0.1145
     32 C         139.6222  137.8213  163.8284 C.ar    1  UNL1        0.0035
     33 C         138.8355  137.8830  162.5527 C.ar    1  UNL1       -0.0022
     34 C         139.5449  138.0467  161.2413 C.ar    1  UNL1        0.0060
     35 C         141.0410  138.1488  161.2054 C.ar    1  UNL1        0.0752
     36 C         141.8277  138.0870  162.4811 C.ar    1  UNL1        0.2898
     37 C         141.1183  137.9233  163.7926 C.ar    1  UNL1        0.0727
     38 N         143.3238  138.1890  162.4453 N.pl3   1  UNL1        0.0809
     39 O         144.0523  138.9159  163.5366 O.2     1  UNL1        0.0415
     40 O         144.0913  137.5642  161.3182 O.co2   1  UNL1       -0.5760
@<TRIPOS>UNITY_ATOM_ATTR
38 1
charge 1
40 1
charge -1
@<TRIPOS>BOND
     1    22    23    1
     2    23    24    1
     3    23    21    1
     4    21    19    1
     5    19    20    2
     6    20    11    1
     7    11    12    2
     8    11    13   am
     9    13    14    1
    10    14    15    1
    11    15    16    1
    12    16     1    1
    13     1     2   ar
    14     2     3   ar
    15     3     4   ar
    16     4     5   ar
    17     5     6   ar
    18     6    25    1
    19    25    26    1
    20    25    27    1
    21    25    28    1
    22     6     7   ar
    23     7     8   ar
    24     8    29    1
    25    29    31    1
    26    31    32    1
    27    32    33   ar
    28    33    34   ar
    29    34    35   ar
    30    35    36   ar
    31    36    38    1
    32    38    39    2
    33    38    40    1
    34    36    37   ar
    35     8     9   ar
    36     9    10   ar
    37    16    17    1
    38    17    18    1
    39    18    13    1
    40    10     1   ar
    41     9     4   ar
    42    37    32   ar
    43    29    30    1
@<TRIPOS>MOLECULE
*****
 40 43 0 0 0
SMALL
GASTEIGER

@<TRIPOS>ATOM
      1 C         142.2134  139.4795  162.2550 C.ar    1  UNL1        0.0674
      2 C         143.2973  139.4100  163.2896 C.ar    1  UNL1        0.1133
      3 N         142.9540  139.5307  164.7447 N.ar    1  UNL1       -0.2425
      4 C         141.5267  139.7208  165.1653 C.ar    1  UNL1        0.0825
      5 C         141.1834  139.8415  166.6206 C.ar    1  UNL1        0.0230
      6 C         139.7562  140.0316  167.0412 C.ar    1  UNL1        0.0741
      7 C         138.6723  140.1011  166.0065 C.ar    1  UNL1        0.0183
      8 C         139.0156  139.9804  164.5514 C.ar    1  UNL1        0.0463
      9 C         140.4429  139.7903  164.1308 C.ar    1  UNL1        0.0320
     10 C         140.7862  139.6696  162.6756 C.ar    1  UNL1        0.0188
     11 C         143.5866  138.9968  156.4342 C.2     1  UNL1        0.2490
     12 O         144.4240  140.0501  155.7713 O.2     1  UNL1       -0.2699
     13 N         143.2433  139.1175  157.8894 N.am    1  UNL1       -0.2726
     14 C         142.4060  138.0641  158.5523 C.3     1  UNL1        0.1151
     15 C         142.0627  138.1848  160.0075 C.3     1  UNL1        0.1124
     16 N         142.5567  139.3588  160.7998 N.pl3   1  UNL1       -0.3028
     17 C         143.3940  140.4121  160.1369 C.3     1  UNL1        0.1124
     18 C         143.7373  140.2915  158.6817 C.3     1  UNL1        0.1151
     19 C         143.8245  136.5149  155.7037 C.2     1  UNL1       -0.0041
     20 C         143.0926  137.8229  155.6420 C.2     1  UNL1        0.0548
     21 C         143.3305  135.3410  154.9114 C.3     1  UNL1        0.0991
     22 C         141.5379  133.4609  154.9580 C.3     1  UNL1        0.0899
     23 N         142.6777  134.1856  155.6106 N.3     1  UNL1       -0.2665
     24 C         143.1646  133.7548  156.9624 C.3     1  UNL1        0.0899
     25 C         139.4129  140.1523  168.4963 C.3     1  UNL1        0.4187
     26 F         139.0696  140.2730  169.9516 F       1  UNL1       -0.1659
     27 F         140.6518  140.9675  168.7210 F       1  UNL1       -0.1659
     28 F         138.1740  139.3372  168.2716 F       1  UNL1       -0.1659
     29 N         137.9318  140.0498  163.5169 N.pl3   1  UNL1       -0.3290
     30 H         137.6420  139.2318  163.0519 H       1  UNL1        0.1471
     31 C         137.2893  141.3655  163.1908 C.3     1  UNL1        0.1145
     32 C         138.0883  142.6321  163.2770 C.ar    1  UNL1        0.0035
     33 C         138.0618  143.4515  164.5332 C.ar    1  UNL1       -0.0022
     34 C         138.8607  144.7180  164.6195 C.ar    1  UNL1        0.0060
     35 C         139.6863  145.1652  163.4496 C.ar    1  UNL1        0.0752
     36 C         139.7129  144.3458  162.1935 C.ar    1  UNL1        0.2898
     37 C         138.9139  143.0792  162.1072 C.ar    1  UNL1        0.0727
     38 N         140.5384  144.7930  161.0237 N.pl3   1  UNL1        0.0809
     39 O         142.0350  144.7178  161.0894 O.2     1  UNL1        0.0415
     40 O         139.8672  145.3153  159.7881 O.co2   1  UNL1       -0.5760
@<TRIPOS>UNITY_ATOM_ATTR
38 1
charge 1
40 1
charge -1
@<TRIPOS>BOND
     1    22    23    1
     2    23    24    1
     3    23    21    1
     4    21    19    1
     5    19    20    2
     6    20    11    1
     7    11    12    2
     8    11    13   am
     9    13    14    1
    10    14    15    1
    11    15    16    1
    12    16     1    1
    13     1     2   ar
    14     2     3   ar
    15     3     4   ar
    16     4     5   ar
    17     5     6   ar
    18     6    25    1
    19    25    26    1
    20    25    27    1
    21    25    28    1
    22     6     7   ar
    23     7     8   ar
    24     8    29    1
    25    29    31    1
    26    31    32    1
    27    32    33   ar
    28    33    34   ar
    29    34    35   ar
    30    35    36   ar
    31    36    38    1
    32    38    39    2
    33    38    40    1
    34    36    37   ar
    35     8     9   ar
    36     9    10   ar
    37    16    17    1
    38    17    18    1
    39    18    13    1
    40    10     1   ar
    41     9     4   ar
    42    37    32   ar
    43    29    30    1
@<TRIPOS>MOLECULE
*****
 40 43 0 0 0
SMALL
GASTEIGER

@<TRIPOS>ATOM
      1 C         142.0621  139.0564  162.9383 C.ar    1  UNL1        0.0674
      2 C         141.8019  138.0083  163.9793 C.ar    1  UNL1        0.1133
      3 N         141.8921  138.3585  165.4350 N.ar    1  UNL1       -0.2425
      4 C         142.2425  139.7568  165.8497 C.ar    1  UNL1        0.0825
      5 C         142.3328  140.1069  167.3056 C.ar    1  UNL1        0.0230
      6 C         142.6832  141.5052  167.7203 C.ar    1  UNL1        0.0741
      7 C         142.9434  142.5533  166.6792 C.ar    1  UNL1        0.0183
      8 C         142.8531  142.2032  165.2235 C.ar    1  UNL1        0.0463
      9 C         142.5027  140.8049  164.8087 C.ar    1  UNL1        0.0320
     10 C         142.4125  140.4547  163.3530 C.ar    1  UNL1        0.0188
     11 C         141.7011  137.6559  157.1151 C.2     1  UNL1        0.2490
     12 O         140.5621  138.1746  156.2882 O.2     1  UNL1       -0.2699
     13 N         141.7913  138.0060  158.5709 N.am    1  UNL1       -0.2726
     14 C         142.9303  137.4874  159.3978 C.3     1  UNL1        0.1151
     15 C         143.0205  137.8375  160.8536 C.3     1  UNL1        0.1124
     16 N         141.9718  138.7063  161.4825 N.pl3   1  UNL1       -0.3028
     17 C         140.8329  139.2249  160.6555 C.3     1  UNL1        0.1124
     18 C         140.7426  138.8748  159.1998 C.3     1  UNL1        0.1151
     19 C         142.6274  135.2938  156.5564 C.2     1  UNL1       -0.0041
     20 C         142.7498  136.7872  156.4863 C.2     1  UNL1        0.0548
     21 C         143.6761  134.4251  155.9275 C.3     1  UNL1        0.0991
     22 C         144.7506  132.0732  156.1809 C.3     1  UNL1        0.0899
     23 N         143.5387  132.9321  155.9720 N.3     1  UNL1       -0.2665
     24 C         142.1893  132.2979  155.8076 C.3     1  UNL1        0.0899
     25 C         142.7734  141.8554  169.1760 C.3     1  UNL1        0.4187
     26 F         142.8637  142.2056  170.6318 F       1  UNL1       -0.1659
     27 F         144.0754  142.5572  168.9265 F       1  UNL1       -0.1659
     28 F         141.4715  141.1535  169.4255 F       1  UNL1       -0.1659
     29 N         143.1133  143.2513  164.1825 N.pl3   1  UNL1       -0.3290
     30 H         143.9041  143.1812  163.6003 H       1  UNL1        0.1471
     31 C         142.1686  144.4063  164.0286 C.3     1  UNL1        0.1145
     32 C         140.6914  144.1605  163.9419 C.ar    1  UNL1        0.0035
     33 C         139.7840  144.6536  165.0297 C.ar    1  UNL1       -0.0022
     34 C         138.3068  144.4079  164.9431 C.ar    1  UNL1        0.0060
     35 C         137.7370  143.6690  163.7685 C.ar    1  UNL1        0.0752
     36 C         138.6444  143.1760  162.6807 C.ar    1  UNL1        0.2898
     37 C         140.1216  143.4217  162.7674 C.ar    1  UNL1        0.0727
     38 N         138.0747  142.4372  161.5062 N.pl3   1  UNL1        0.0809
     39 O         138.2327  142.9931  160.1220 O.2     1  UNL1        0.0415
     40 O         137.3469  141.1425  161.7158 O.co2   1  UNL1       -0.5760
@<TRIPOS>UNITY_ATOM_ATTR
38 1
charge 1
40 1
charge -1
@<TRIPOS>BOND
     1    22    23    1
     2    23    24    1
     3    23    21    1
     4    21    19    1
     5    19    20    2
     6    20    11    1
     7    11    12    2
     8    11    13   am
     9    13    14    1
    10    14    15    1
    11    15    16    1
    12    16     1    1
    13     1     2   ar
    14     2     3   ar
    15     3     4   ar
    16     4     5   ar
    17     5     6   ar
    18     6    25    1
    19    25    26    1
    20    25    27    1
    21    25    28    1
    22     6     7   ar
    23     7     8   ar
    24     8    29    1
    25    29    31    1
    26    31    32    1
    27    32    33   ar
    28    33    34   ar
    29    34    35   ar
    30    35    36   ar
    31    36    38    1
    32    38    39    2
    33    38    40    1
    34    36    37   ar
    35     8     9   ar
    36     9    10   ar
    37    16    17    1
    38    17    18    1
    39    18    13    1
    40    10     1   ar
    41     9     4   ar
    42    37    32   ar
    43    29    30    1
@<TRIPOS>MOLECULE
*****
 40 43 0 0 0
SMALL
GASTEIGER

@<TRIPOS>ATOM
      1 C         143.2173  142.6646  162.5353 C.ar    1  UNL1        0.0674
      2 C         144.4686  142.4186  163.3249 C.ar    1  UNL1        0.1133
      3 N         144.4026  142.3060  164.8192 N.ar    1  UNL1       -0.2425
      4 C         143.0852  142.4395  165.5239 C.ar    1  UNL1        0.0825
      5 C         143.0191  142.3269  167.0182 C.ar    1  UNL1        0.0230
      6 C         141.7017  142.4603  167.7229 C.ar    1  UNL1        0.0741
      7 C         140.4503  142.7064  166.9332 C.ar    1  UNL1        0.0183
      8 C         140.5164  142.8190  165.4390 C.ar    1  UNL1        0.0463
      9 C         141.8338  142.6855  164.7343 C.ar    1  UNL1        0.0320
     10 C         141.8999  142.7981  163.2400 C.ar    1  UNL1        0.0188
     11 C         143.4814  143.1150  156.5580 C.2     1  UNL1        0.2490
     12 O         144.7010  142.6426  155.8235 O.2     1  UNL1       -0.2699
     13 N         143.4154  143.0024  158.0523 N.am    1  UNL1       -0.2726
     14 C         142.1958  143.4747  158.7869 C.3     1  UNL1        0.1151
     15 C         142.1298  143.3621  160.2812 C.3     1  UNL1        0.1124
     16 N         143.2833  142.7772  161.0410 N.pl3   1  UNL1       -0.3028
     17 C         144.5029  142.3049  160.3064 C.3     1  UNL1        0.1124
     18 C         144.5689  142.4175  158.8121 C.3     1  UNL1        0.1151
     19 C         142.3191  145.1601  155.4551 C.2     1  UNL1       -0.0041
     20 C         142.3279  143.6999  155.7983 C.2     1  UNL1        0.0548
     21 C         141.1656  145.7450  154.6953 C.3     1  UNL1        0.0991
     22 C         139.8253  147.9684  154.5928 C.3     1  UNL1        0.0899
     23 N         140.2692  146.7529  155.3516 N.3     1  UNL1       -0.2665
     24 C         139.8168  146.5454  156.7666 C.3     1  UNL1        0.0899
     25 C         141.6357  142.3478  169.2172 C.3     1  UNL1        0.4187
     26 F         141.5695  142.2352  170.7116 F       1  UNL1       -0.1659
     27 F         140.1409  142.4581  169.1594 F       1  UNL1       -0.1659
     28 F         143.1304  142.2375  169.2750 F       1  UNL1       -0.1659
     29 N         139.2650  143.0650  164.6494 N.pl3   1  UNL1       -0.3290
     30 H         139.1819  143.8771  164.0990 H       1  UNL1        0.1471
     31 C         138.1402  142.0738  164.6983 C.3     1  UNL1        0.1145
     32 C         138.4346  140.6033  164.6681 C.ar    1  UNL1        0.0035
     33 C         138.1733  139.7610  165.8815 C.ar    1  UNL1       -0.0022
     34 C         138.4676  138.2905  165.8513 C.ar    1  UNL1        0.0060
     35 C         139.0233  137.6622  164.6077 C.ar    1  UNL1        0.0752
     36 C         139.2847  138.5045  163.3943 C.ar    1  UNL1        0.2898
     37 C         138.9903  139.9750  163.4246 C.ar    1  UNL1        0.0727
     38 N         139.8403  137.8762  162.1508 N.pl3   1  UNL1        0.0809
     39 O         139.0647  137.9380  160.8684 O.2     1  UNL1        0.0415
     40 O         141.1716  137.1862  162.1897 O.co2   1  UNL1       -0.5760
@<TRIPOS>UNITY_ATOM_ATTR
38 1
charge 1
40 1
charge -1
@<TRIPOS>BOND
     1    22    23    1
     2    23    24    1
     3    23    21    1
     4    21    19    1
     5    19    20    2
     6    20    11    1
     7    11    12    2
     8    11    13   am
     9    13    14    1
    10    14    15    1
    11    15    16    1
    12    16     1    1
    13     1     2   ar
    14     2     3   ar
    15     3     4   ar
    16     4     5   ar
    17     5     6   ar
    18     6    25    1
    19    25    26    1
    20    25    27    1
    21    25    28    1
    22     6     7   ar
    23     7     8   ar
    24     8    29    1
    25    29    31    1
    26    31    32    1
    27    32    33   ar
    28    33    34   ar
    29    34    35   ar
    30    35    36   ar
    31    36    38    1
    32    38    39    2
    33    38    40    1
    34    36    37   ar
    35     8     9   ar
    36     9    10   ar
    37    16    17    1
    38    17    18    1
    39    18    13    1
    40    10     1   ar
    41     9     4   ar
    42    37    32   ar
    43    29    30    1
