@<TRIPOS>MOLECULE
*****
 35 39 0 0 0
SMALL
GASTEIGER

@<TRIPOS>ATOM
      1 N         140.4499  140.3588  159.9785 N.pl3   1  UNL1       -0.2464
      2 C         140.8072  140.1389  161.4186 C.2     1  UNL1        0.3157
      3 N         141.9352  140.7958  162.1574 N.2     1  UNL1       -0.0614
      4 C         141.9243  140.2863  163.5682 C.3     1  UNL1        0.2309
      5 C         140.7894  139.3145  163.7013 C.ar    1  UNL1        0.0412
      6 C         140.2956  138.5008  164.8605 C.ar    1  UNL1        0.0304
      7 C         139.1113  137.5959  164.6913 C.ar    1  UNL1        0.1422
      8 F         138.6174  136.7822  165.8506 F       1  UNL1       -0.2041
      9 C         138.4209  137.5048  163.3627 C.ar    1  UNL1        0.0595
     10 C         138.9147  138.3185  162.2035 C.ar    1  UNL1        0.1493
     11 F         138.2243  138.2274  160.8749 F       1  UNL1       -0.2039
     12 C         140.0990  139.2233  162.3727 C.ar    1  UNL1        0.1096
     13 H         140.9777  140.9834  159.4302 H       1  UNL1        0.2884
     14 H         139.6876  139.8786  159.5815 H       1  UNL1        0.2884
     15 C         142.1609  139.9660  165.0143 C.ar    1  UNL1        0.0297
     16 C         143.0511  138.8194  165.3926 C.ar    1  UNL1        0.0004
     17 C         143.2878  138.4990  166.8388 C.ar    1  UNL1       -0.0002
     18 C         142.6343  139.3252  167.9067 C.ar    1  UNL1        0.0001
     19 C         141.7441  140.4718  167.5284 C.ar    1  UNL1        0.0028
     20 C         141.5074  140.7921  166.0822 C.ar    1  UNL1        0.0005
     21 C         141.0906  141.2980  168.5962 C.ar    1  UNL1        0.0384
     22 C         140.7036  140.6671  169.9010 C.ar    1  UNL1        0.1022
     23 N         140.0500  141.4932  170.9688 N.ar    1  UNL1       -0.2224
     24 C         139.7835  142.9503  170.7319 C.ar    1  UNL1        0.1989
     25 N         140.1705  143.5811  169.4272 N.ar    1  UNL1       -0.2224
     26 C         140.8240  142.7549  168.3593 C.ar    1  UNL1        0.1022
     27 C         143.1086  141.1912  163.7374 C.ar    1  UNL1        0.0326
     28 C         144.4980  140.6366  163.6272 C.ar    1  UNL1        0.0210
     29 C         145.6822  141.5415  163.7964 C.ar    1  UNL1        0.0985
     30 N         145.4772  143.0009  164.0759 N.ar    1  UNL1       -0.2426
     31 C         144.0878  143.5554  164.1861 C.ar    1  UNL1        0.1248
     32 C         142.9036  142.6506  164.0168 C.ar    1  UNL1        0.0207
     33 C         143.8827  145.0148  164.4655 C.3     1  UNL1        0.3581
     34 F         142.8079  145.7728  163.7443 F       1  UNL1       -0.1915
     35 F         144.7525  145.7163  165.4662 F       1  UNL1       -0.1915
@<TRIPOS>BOND
     1     1     2    1
     2     2     3    2
     3     3     4    1
     4     4    15    1
     5    15    16   ar
     6    16    17   ar
     7    17    18   ar
     8    18    19   ar
     9    19    21    1
    10    21    22   ar
    11    22    23   ar
    12    23    24   ar
    13    24    25   ar
    14    25    26   ar
    15    19    20   ar
    16     4    27    1
    17    27    28   ar
    18    28    29   ar
    19    29    30   ar
    20    30    31   ar
    21    31    33    1
    22    33    34    1
    23    33    35    1
    24    31    32   ar
    25     4     5    1
    26     5     6   ar
    27     6     7   ar
    28     7     8    1
    29     7     9   ar
    30     9    10   ar
    31    10    11    1
    32    10    12   ar
    33    12     2    1
    34    20    15   ar
    35    32    27   ar
    36    12     5   ar
    37    26    21   ar
    38     1    13    1
    39     1    14    1
@<TRIPOS>MOLECULE
*****
 35 39 0 0 0
SMALL
GASTEIGER

@<TRIPOS>ATOM
      1 N         137.6863  144.0172  162.0172 N.pl3   1  UNL1       -0.2464
      2 C         138.8266  143.2936  162.6699 C.2     1  UNL1        0.3157
      3 N         138.8471  141.8433  163.0522 N.2     1  UNL1       -0.0614
      4 C         140.1797  141.5466  163.6736 C.3     1  UNL1        0.2309
      5 C         140.9828  142.8135  163.6753 C.ar    1  UNL1        0.0412
      6 C         142.3675  143.1235  164.1615 C.ar    1  UNL1        0.0304
      7 C         142.9159  144.5131  164.0274 C.ar    1  UNL1        0.1422
      8 F         144.3007  144.8232  164.5137 F       1  UNL1       -0.2041
      9 C         142.0796  145.5929  163.4071 C.ar    1  UNL1        0.0595
     10 C         140.6949  145.2829  162.9209 C.ar    1  UNL1        0.1493
     11 F         139.8585  146.3626  162.3006 F       1  UNL1       -0.2039
     12 C         140.1465  143.8932  163.0550 C.ar    1  UNL1        0.1096
     13 H         136.8556  143.5346  161.8020 H       1  UNL1        0.2884
     14 H         137.7686  144.9748  161.8039 H       1  UNL1        0.2884
     15 C         141.3977  140.9594  164.3229 C.ar    1  UNL1        0.0297
     16 C         142.5198  140.4349  163.4767 C.ar    1  UNL1        0.0004
     17 C         143.7377  139.8477  164.1260 C.ar    1  UNL1       -0.0002
     18 C         143.8337  139.7849  165.6217 C.ar    1  UNL1        0.0001
     19 C         142.7118  140.3093  166.4679 C.ar    1  UNL1        0.0028
     20 C         141.4937  140.8965  165.8186 C.ar    1  UNL1        0.0005
     21 C         142.8077  140.2465  167.9635 C.ar    1  UNL1        0.0384
     22 C         142.8611  141.5132  168.7654 C.ar    1  UNL1        0.1022
     23 N         142.9570  141.4505  170.2609 N.ar    1  UNL1       -0.2224
     24 C         142.9995  140.1212  170.9547 C.ar    1  UNL1        0.1989
     25 N         142.9461  138.8546  170.1529 N.ar    1  UNL1       -0.2224
     26 C         142.8502  138.9173  168.6572 C.ar    1  UNL1        0.1022
     27 C         139.6313  140.1568  163.8076 C.ar    1  UNL1        0.0326
     28 C         139.6929  139.2109  162.6452 C.ar    1  UNL1        0.0210
     29 C         139.1445  137.8212  162.7793 C.ar    1  UNL1        0.0985
     30 N         138.5344  137.3775  164.0758 N.ar    1  UNL1       -0.2426
     31 C         138.4728  138.3235  165.2383 C.ar    1  UNL1        0.1248
     32 C         139.0212  139.7132  165.1042 C.ar    1  UNL1        0.0207
     33 C         137.8627  137.8798  166.5348 C.3     1  UNL1        0.3581
     34 F         137.5322  136.4329  166.7518 F       1  UNL1       -0.1915
     35 F         137.5833  138.8831  167.6143 F       1  UNL1       -0.1915
@<TRIPOS>BOND
     1     1     2    1
     2     2     3    2
     3     3     4    1
     4     4    15    1
     5    15    16   ar
     6    16    17   ar
     7    17    18   ar
     8    18    19   ar
     9    19    21    1
    10    21    22   ar
    11    22    23   ar
    12    23    24   ar
    13    24    25   ar
    14    25    26   ar
    15    19    20   ar
    16     4    27    1
    17    27    28   ar
    18    28    29   ar
    19    29    30   ar
    20    30    31   ar
    21    31    33    1
    22    33    34    1
    23    33    35    1
    24    31    32   ar
    25     4     5    1
    26     5     6   ar
    27     6     7   ar
    28     7     8    1
    29     7     9   ar
    30     9    10   ar
    31    10    11    1
    32    10    12   ar
    33    12     2    1
    34    20    15   ar
    35    32    27   ar
    36    12     5   ar
    37    26    21   ar
    38     1    13    1
    39     1    14    1
@<TRIPOS>MOLECULE
*****
 35 39 0 0 0
SMALL
GASTEIGER

@<TRIPOS>ATOM
      1 N         136.9850  137.5858  167.7096 N.pl3   1  UNL1       -0.2464
      2 C         138.0301  138.4774  167.1073 C.2     1  UNL1        0.3157
      3 N         138.5526  138.3998  165.7034 N.2     1  UNL1       -0.0614
      4 C         139.5816  139.4776  165.5316 C.3     1  UNL1        0.2309
      5 C         139.6951  140.2213  166.8293 C.ar    1  UNL1        0.0412
      6 C         140.5476  141.3815  167.2500 C.ar    1  UNL1        0.0304
      7 C         140.4413  141.9235  168.6445 C.ar    1  UNL1        0.1422
      8 F         141.2938  143.0838  169.0653 F       1  UNL1       -0.2041
      9 C         139.4824  141.3054  169.6184 C.ar    1  UNL1        0.0595
     10 C         138.6298  140.1451  169.1977 C.ar    1  UNL1        0.1493
     11 F         137.6709  139.5270  170.1715 F       1  UNL1       -0.2039
     12 C         138.7362  139.6031  167.8031 C.ar    1  UNL1        0.1096
     13 H         136.5776  136.8704  167.1697 H       1  UNL1        0.2884
     14 H         136.7065  137.7159  168.6449 H       1  UNL1        0.2884
     15 C         140.6328  140.4420  165.0682 C.ar    1  UNL1        0.0297
     16 C         142.0441  140.3057  165.5581 C.ar    1  UNL1        0.0004
     17 C         143.0953  141.2702  165.0948 C.ar    1  UNL1       -0.0002
     18 C         142.7354  142.3710  164.1415 C.ar    1  UNL1        0.0001
     19 C         141.3242  142.5073  163.6516 C.ar    1  UNL1        0.0028
     20 C         140.2729  141.5428  164.1149 C.ar    1  UNL1        0.0005
     21 C         140.9642  143.6081  162.6983 C.ar    1  UNL1        0.0384
     22 C         139.6788  144.3612  162.8734 C.ar    1  UNL1        0.1022
     23 N         139.3187  145.4619  161.9203 N.ar    1  UNL1       -0.2224
     24 C         140.2440  145.8096  160.7919 C.ar    1  UNL1        0.1989
     25 N         141.5293  145.0564  160.6168 N.ar    1  UNL1       -0.2224
     26 C         141.8894  143.9557  161.5700 C.ar    1  UNL1        0.1022
     27 C         139.6880  138.9355  164.1369 C.ar    1  UNL1        0.0326
     28 C         138.4491  138.7224  163.3186 C.ar    1  UNL1        0.0210
     29 C         138.5554  138.1803  161.9241 C.ar    1  UNL1        0.0985
     30 N         139.9007  137.8513  161.3479 N.ar    1  UNL1       -0.2426
     31 C         141.1396  138.0643  162.1662 C.ar    1  UNL1        0.1248
     32 C         141.0332  138.6064  163.5607 C.ar    1  UNL1        0.0207
     33 C         142.4848  137.7353  161.5900 C.3     1  UNL1        0.3581
     34 F         143.7242  137.9538  162.4062 F       1  UNL1       -0.1915
     35 F         142.5908  137.1877  160.1976 F       1  UNL1       -0.1915
@<TRIPOS>BOND
     1     1     2    1
     2     2     3    2
     3     3     4    1
     4     4    15    1
     5    15    16   ar
     6    16    17   ar
     7    17    18   ar
     8    18    19   ar
     9    19    21    1
    10    21    22   ar
    11    22    23   ar
    12    23    24   ar
    13    24    25   ar
    14    25    26   ar
    15    19    20   ar
    16     4    27    1
    17    27    28   ar
    18    28    29   ar
    19    29    30   ar
    20    30    31   ar
    21    31    33    1
    22    33    34    1
    23    33    35    1
    24    31    32   ar
    25     4     5    1
    26     5     6   ar
    27     6     7   ar
    28     7     8    1
    29     7     9   ar
    30     9    10   ar
    31    10    11    1
    32    10    12   ar
    33    12     2    1
    34    20    15   ar
    35    32    27   ar
    36    12     5   ar
    37    26    21   ar
    38     1    13    1
    39     1    14    1
@<TRIPOS>MOLECULE
*****
 35 39 0 0 0
SMALL
GASTEIGER

@<TRIPOS>ATOM
      1 N         136.8459  137.5952  167.8952 N.pl3   1  UNL1       -0.2464
      2 C         137.9526  138.4489  167.3507 C.2     1  UNL1        0.3157
      3 N         138.5717  138.3275  165.9898 N.2     1  UNL1       -0.0614
      4 C         139.6362  139.3775  165.8695 C.3     1  UNL1        0.2309
      5 C         139.6750  140.1478  167.1561 C.ar    1  UNL1        0.0412
      6 C         140.5234  141.2976  167.6123 C.ar    1  UNL1        0.0304
      7 C         140.3312  141.8735  168.9839 C.ar    1  UNL1        0.1422
      8 F         141.1796  143.0233  169.4402 F       1  UNL1       -0.2041
      9 C         139.2907  141.2996  169.8993 C.ar    1  UNL1        0.0595
     10 C         138.4423  140.1498  169.4431 C.ar    1  UNL1        0.1493
     11 F         137.4018  139.5759  170.3585 F       1  UNL1       -0.2039
     12 C         138.6345  139.5739  168.0715 C.ar    1  UNL1        0.1096
     13 H         136.4607  136.8773  167.3426 H       1  UNL1        0.2884
     14 H         136.5048  137.7529  168.8051 H       1  UNL1        0.2884
     15 C         140.7409  140.3070  165.4625 C.ar    1  UNL1        0.0297
     16 C         142.1234  140.1149  166.0120 C.ar    1  UNL1        0.0004
     17 C         143.2280  141.0445  165.6050 C.ar    1  UNL1       -0.0002
     18 C         142.9503  142.1661  164.6485 C.ar    1  UNL1        0.0001
     19 C         141.5678  142.3582  164.0990 C.ar    1  UNL1        0.0028
     20 C         140.4631  141.4286  164.5060 C.ar    1  UNL1        0.0005
     21 C         141.2900  143.4797  163.1425 C.ar    1  UNL1        0.0384
     22 C         142.1475  143.6564  161.9245 C.ar    1  UNL1        0.1022
     23 N         141.8697  144.7779  160.9680 N.ar    1  UNL1       -0.2224
     24 C         140.7344  145.7228  161.2295 C.ar    1  UNL1        0.1989
     25 N         139.8769  145.5461  162.4475 N.ar    1  UNL1       -0.2224
     26 C         140.1547  144.4245  163.4040 C.ar    1  UNL1        0.1022
     27 C         139.8283  138.8015  164.4979 C.ar    1  UNL1        0.0326
     28 C         140.9295  137.8146  164.2463 C.ar    1  UNL1        0.0210
     29 C         141.1216  137.2387  162.8747 C.ar    1  UNL1        0.0985
     30 N         140.2125  137.6496  161.7547 N.ar    1  UNL1       -0.2426
     31 C         139.1113  138.6365  162.0062 C.ar    1  UNL1        0.1248
     32 C         138.9192  139.2125  163.3778 C.ar    1  UNL1        0.0207
     33 C         138.2022  139.0475  160.8861 C.3     1  UNL1        0.3581
     34 F         136.7165  138.9038  161.0348 F       1  UNL1       -0.1915
     35 F         138.7787  139.6022  159.6173 F       1  UNL1       -0.1915
@<TRIPOS>BOND
     1     1     2    1
     2     2     3    2
     3     3     4    1
     4     4    15    1
     5    15    16   ar
     6    16    17   ar
     7    17    18   ar
     8    18    19   ar
     9    19    21    1
    10    21    22   ar
    11    22    23   ar
    12    23    24   ar
    13    24    25   ar
    14    25    26   ar
    15    19    20   ar
    16     4    27    1
    17    27    28   ar
    18    28    29   ar
    19    29    30   ar
    20    30    31   ar
    21    31    33    1
    22    33    34    1
    23    33    35    1
    24    31    32   ar
    25     4     5    1
    26     5     6   ar
    27     6     7   ar
    28     7     8    1
    29     7     9   ar
    30     9    10   ar
    31    10    11    1
    32    10    12   ar
    33    12     2    1
    34    20    15   ar
    35    32    27   ar
    36    12     5   ar
    37    26    21   ar
    38     1    13    1
    39     1    14    1
@<TRIPOS>MOLECULE
*****
 35 39 0 0 0
SMALL
GASTEIGER

@<TRIPOS>ATOM
      1 N         142.3739  142.5513  169.1361 N.pl3   1  UNL1       -0.2464
      2 C         141.9758  141.6671  167.9916 C.2     1  UNL1        0.3157
      3 N         142.7539  141.4590  166.7262 N.2     1  UNL1       -0.0614
      4 C         141.9887  140.4991  165.8642 C.3     1  UNL1        0.2309
      5 C         140.7378  140.1139  166.5969 C.ar    1  UNL1        0.0412
      6 C         139.6050  139.1991  166.2366 C.ar    1  UNL1        0.0304
      7 C         138.4642  139.0062  167.1912 C.ar    1  UNL1        0.1422
      8 F         137.3312  138.0914  166.8310 F       1  UNL1       -0.2041
      9 C         138.4562  139.7281  168.5061 C.ar    1  UNL1        0.0595
     10 C         139.5890  140.6429  168.8663 C.ar    1  UNL1        0.1493
     11 F         139.5811  141.3648  170.1811 F       1  UNL1       -0.2039
     12 C         140.7298  140.8358  167.9117 C.ar    1  UNL1        0.1096
     13 H         143.2156  143.0604  169.0952 H       1  UNL1        0.2884
     14 H         141.7935  142.6225  169.9281 H       1  UNL1        0.2884
     15 C         141.4621  139.5795  164.8026 C.ar    1  UNL1        0.0297
     16 C         141.6348  138.0959  164.9423 C.ar    1  UNL1        0.0004
     17 C         141.1082  137.1763  163.8807 C.ar    1  UNL1       -0.0002
     18 C         140.4088  137.7402  162.6795 C.ar    1  UNL1        0.0001
     19 C         140.2360  139.2236  162.5398 C.ar    1  UNL1        0.0028
     20 C         140.7627  140.1433  163.6014 C.ar    1  UNL1        0.0005
     21 C         139.5367  139.7876  161.3386 C.ar    1  UNL1        0.0384
     22 C         139.1017  141.2232  161.3293 C.ar    1  UNL1        0.1022
     23 N         138.4024  141.7872  160.1283 N.ar    1  UNL1       -0.2224
     24 C         138.1379  140.9156  158.9364 C.ar    1  UNL1        0.1989
     25 N         138.5729  139.4801  158.9456 N.ar    1  UNL1       -0.2224
     26 C         139.2722  138.9160  160.1468 C.ar    1  UNL1        0.1022
     27 C         143.1296  140.6920  164.9096 C.ar    1  UNL1        0.0326
     28 C         144.1911  139.6393  164.7869 C.ar    1  UNL1        0.0210
     29 C         145.3319  139.8323  163.8323 C.ar    1  UNL1        0.0985
     30 N         145.4112  141.0779  163.0004 N.ar    1  UNL1       -0.2426
     31 C         144.3497  142.1306  163.1230 C.ar    1  UNL1        0.1248
     32 C         143.2089  141.9376  164.0776 C.ar    1  UNL1        0.0207
     33 C         144.4291  143.3762  162.2911 C.3     1  UNL1        0.3581
     34 F         144.3600  144.7227  162.9484 F       1  UNL1       -0.1915
     35 F         144.5774  143.2753  160.8019 F       1  UNL1       -0.1915
@<TRIPOS>BOND
     1     1     2    1
     2     2     3    2
     3     3     4    1
     4     4    15    1
     5    15    16   ar
     6    16    17   ar
     7    17    18   ar
     8    18    19   ar
     9    19    21    1
    10    21    22   ar
    11    22    23   ar
    12    23    24   ar
    13    24    25   ar
    14    25    26   ar
    15    19    20   ar
    16     4    27    1
    17    27    28   ar
    18    28    29   ar
    19    29    30   ar
    20    30    31   ar
    21    31    33    1
    22    33    34    1
    23    33    35    1
    24    31    32   ar
    25     4     5    1
    26     5     6   ar
    27     6     7   ar
    28     7     8    1
    29     7     9   ar
    30     9    10   ar
    31    10    11    1
    32    10    12   ar
    33    12     2    1
    34    20    15   ar
    35    32    27   ar
    36    12     5   ar
    37    26    21   ar
    38     1    13    1
    39     1    14    1
@<TRIPOS>MOLECULE
*****
 35 39 0 0 0
SMALL
GASTEIGER

@<TRIPOS>ATOM
      1 N         138.3335  139.8795  170.1553 N.pl3   1  UNL1       -0.2464
      2 C         139.3172  140.1866  169.0652 C.2     1  UNL1        0.3157
      3 N         139.1781  139.8092  167.6201 N.2     1  UNL1       -0.0614
      4 C         140.3876  140.3144  166.8908 C.3     1  UNL1        0.2309
      5 C         141.2741  141.0039  167.8850 C.ar    1  UNL1        0.0412
      6 C         142.5983  141.6934  167.7403 C.ar    1  UNL1        0.0304
      7 C         143.2609  142.3040  168.9395 C.ar    1  UNL1        0.1422
      8 F         144.5852  142.9936  168.7947 F       1  UNL1       -0.2041
      9 C         142.5994  142.2251  170.2834 C.ar    1  UNL1        0.0595
     10 C         141.2752  141.5355  170.4281 C.ar    1  UNL1        0.1493
     11 F         140.6137  141.4565  171.7720 F       1  UNL1       -0.2039
     12 C         140.6126  140.9249  169.2290 C.ar    1  UNL1        0.1096
     13 H         137.5068  139.3868  169.9478 H       1  UNL1        0.2884
     14 H         138.5147  140.1707  171.0781 H       1  UNL1        0.2884
     15 C         141.4585  140.6918  165.9107 C.ar    1  UNL1        0.0297
     16 C         142.7961  140.0149  165.9636 C.ar    1  UNL1        0.0004
     17 C         143.8670  140.3923  164.9835 C.ar    1  UNL1       -0.0002
     18 C         143.6004  141.4467  163.9504 C.ar    1  UNL1        0.0001
     19 C         142.2629  142.1237  163.8975 C.ar    1  UNL1        0.0028
     20 C         141.1919  141.7462  164.8776 C.ar    1  UNL1        0.0005
     21 C         141.9962  143.1781  162.8645 C.ar    1  UNL1        0.0384
     22 C         140.9652  144.2367  163.1222 C.ar    1  UNL1        0.1022
     23 N         140.6984  145.2911  162.0893 N.ar    1  UNL1       -0.2224
     24 C         141.4628  145.2870  160.7986 C.ar    1  UNL1        0.1989
     25 N         142.4938  144.2284  160.5409 N.ar    1  UNL1       -0.2224
     26 C         142.7605  143.1739  161.5738 C.ar    1  UNL1        0.1022
     27 C         139.7248  139.7037  165.6916 C.ar    1  UNL1        0.0326
     28 C         139.8795  138.2377  165.4144 C.ar    1  UNL1        0.0210
     29 C         139.2168  137.6272  164.2153 C.ar    1  UNL1        0.0985
     30 N         138.3995  138.4826  163.2933 N.ar    1  UNL1       -0.2426
     31 C         138.2448  139.9486  163.5704 C.ar    1  UNL1        0.1248
     32 C         138.9075  140.5592  164.7695 C.ar    1  UNL1        0.0207
     33 C         137.4274  140.8041  162.6484 C.3     1  UNL1        0.3581
     34 F         137.1310  140.3342  161.2551 F       1  UNL1       -0.1915
     35 F         136.9065  142.1294  163.1197 F       1  UNL1       -0.1915
@<TRIPOS>BOND
     1     1     2    1
     2     2     3    2
     3     3     4    1
     4     4    15    1
     5    15    16   ar
     6    16    17   ar
     7    17    18   ar
     8    18    19   ar
     9    19    21    1
    10    21    22   ar
    11    22    23   ar
    12    23    24   ar
    13    24    25   ar
    14    25    26   ar
    15    19    20   ar
    16     4    27    1
    17    27    28   ar
    18    28    29   ar
    19    29    30   ar
    20    30    31   ar
    21    31    33    1
    22    33    34    1
    23    33    35    1
    24    31    32   ar
    25     4     5    1
    26     5     6   ar
    27     6     7   ar
    28     7     8    1
    29     7     9   ar
    30     9    10   ar
    31    10    11    1
    32    10    12   ar
    33    12     2    1
    34    20    15   ar
    35    32    27   ar
    36    12     5   ar
    37    26    21   ar
    38     1    13    1
    39     1    14    1
@<TRIPOS>MOLECULE
*****
 35 39 0 0 0
SMALL
GASTEIGER

@<TRIPOS>ATOM
      1 N         142.2844  144.8452  160.6835 N.pl3   1  UNL1       -0.2464
      2 C         141.7174  143.9644  161.7572 C.2     1  UNL1        0.3157
      3 N         142.3347  142.7004  162.2781 N.2     1  UNL1       -0.0614
      4 C         141.4323  142.1478  163.3412 C.3     1  UNL1        0.2309
      5 C         140.2573  143.0702  163.4774 C.ar    1  UNL1        0.0412
      6 C         139.0497  143.0328  164.3663 C.ar    1  UNL1        0.0304
      7 C         138.0183  144.1182  164.2762 C.ar    1  UNL1        0.1422
      8 F         136.8106  144.0808  165.1652 F       1  UNL1       -0.2041
      9 C         138.1945  145.2409  163.2972 C.ar    1  UNL1        0.0595
     10 C         139.4021  145.2783  162.4083 C.ar    1  UNL1        0.1493
     11 F         139.5783  146.4010  161.4293 F       1  UNL1       -0.2039
     12 C         140.4335  144.1929  162.4984 C.ar    1  UNL1        0.1096
     13 H         143.1384  144.6100  160.2538 H       1  UNL1        0.2884
     14 H         141.8026  145.6585  160.4086 H       1  UNL1        0.2884
     15 C         140.7456  141.3683  164.4232 C.ar    1  UNL1        0.0297
     16 C         139.8839  140.1926  164.0690 C.ar    1  UNL1        0.0004
     17 C         139.1972  139.4130  165.1510 C.ar    1  UNL1       -0.0002
     18 C         139.3720  139.8091  166.5871 C.ar    1  UNL1        0.0001
     19 C         140.2337  140.9848  166.9413 C.ar    1  UNL1        0.0028
     20 C         140.9205  141.7644  165.8593 C.ar    1  UNL1        0.0005
     21 C         140.4086  141.3809  168.3775 C.ar    1  UNL1        0.0384
     22 C         141.0385  142.6984  168.7206 C.ar    1  UNL1        0.1022
     23 N         141.2135  143.0946  170.1566 N.ar    1  UNL1       -0.2224
     24 C         140.7585  142.1734  171.2496 C.ar    1  UNL1        0.1989
     25 N         140.1287  140.8560  170.9065 N.ar    1  UNL1       -0.2224
     26 C         139.9537  140.4598  169.4703 C.ar    1  UNL1        0.1022
     27 C         142.4638  141.0624  163.4312 C.ar    1  UNL1        0.0326
     28 C         143.4715  141.0757  164.5422 C.ar    1  UNL1        0.0210
     29 C         144.5030  139.9904  164.6322 C.ar    1  UNL1        0.0985
     30 N         144.5267  138.8917  163.6112 N.ar    1  UNL1       -0.2426
     31 C         143.5190  138.8784  162.5002 C.ar    1  UNL1        0.1248
     32 C         142.4875  139.9638  162.4103 C.ar    1  UNL1        0.0207
     33 C         143.5427  137.7798  161.4793 C.3     1  UNL1        0.3581
     34 F         144.7894  136.9707  161.2769 F       1  UNL1       -0.1915
     35 F         142.3196  137.4901  160.6607 F       1  UNL1       -0.1915
@<TRIPOS>BOND
     1     1     2    1
     2     2     3    2
     3     3     4    1
     4     4    15    1
     5    15    16   ar
     6    16    17   ar
     7    17    18   ar
     8    18    19   ar
     9    19    21    1
    10    21    22   ar
    11    22    23   ar
    12    23    24   ar
    13    24    25   ar
    14    25    26   ar
    15    19    20   ar
    16     4    27    1
    17    27    28   ar
    18    28    29   ar
    19    29    30   ar
    20    30    31   ar
    21    31    33    1
    22    33    34    1
    23    33    35    1
    24    31    32   ar
    25     4     5    1
    26     5     6   ar
    27     6     7   ar
    28     7     8    1
    29     7     9   ar
    30     9    10   ar
    31    10    11    1
    32    10    12   ar
    33    12     2    1
    34    20    15   ar
    35    32    27   ar
    36    12     5   ar
    37    26    21   ar
    38     1    13    1
    39     1    14    1
@<TRIPOS>MOLECULE
*****
 35 39 0 0 0
SMALL
GASTEIGER

@<TRIPOS>ATOM
      1 N         143.7743  137.9817  167.7844 N.pl3   1  UNL1       -0.2464
      2 C         142.7961  138.8678  167.0718 C.2     1  UNL1        0.3157
      3 N         142.2280  138.6329  165.7036 N.2     1  UNL1       -0.0614
      4 C         141.2951  139.7643  165.3885 C.3     1  UNL1        0.2309
      5 C         141.2865  140.6986  166.5620 C.ar    1  UNL1        0.0412
      6 C         140.5539  141.9823  166.8176 C.ar    1  UNL1        0.0304
      7 C         140.7489  142.7119  168.1136 C.ar    1  UNL1        0.1422
      8 F         140.0162  143.9956  168.3693 F       1  UNL1       -0.2041
      9 C         141.6766  142.1578  169.1540 C.ar    1  UNL1        0.0595
     10 C         142.4093  140.8741  168.8983 C.ar    1  UNL1        0.1493
     11 F         143.3370  140.3201  169.9387 F       1  UNL1       -0.2039
     12 C         142.2142  140.1446  167.6023 C.ar    1  UNL1        0.1096
     13 H         144.1002  137.1599  167.3513 H       1  UNL1        0.2884
     14 H         144.0905  138.2220  168.6853 H       1  UNL1        0.2884
     15 C         140.3213  140.7433  164.8025 C.ar    1  UNL1        0.0297
     16 C         138.9022  140.7714  165.2877 C.ar    1  UNL1        0.0004
     17 C         137.9284  141.7504  164.7017 C.ar    1  UNL1       -0.0002
     18 C         138.3737  142.7012  163.6304 C.ar    1  UNL1        0.0001
     19 C         139.7928  142.6731  163.1452 C.ar    1  UNL1        0.0028
     20 C         140.7666  141.6941  163.7312 C.ar    1  UNL1        0.0005
     21 C         140.2382  143.6239  162.0739 C.ar    1  UNL1        0.0384
     22 C         141.5441  143.4021  161.3700 C.ar    1  UNL1        0.1022
     23 N         141.9896  144.3528  160.2987 N.ar    1  UNL1       -0.2224
     24 C         141.1292  145.5254  159.9314 C.ar    1  UNL1        0.1989
     25 N         139.8233  145.7471  160.6353 N.ar    1  UNL1       -0.2224
     26 C         139.3778  144.7964  161.7066 C.ar    1  UNL1        0.1022
     27 C         141.1000  139.0347  164.0925 C.ar    1  UNL1        0.0326
     28 C         139.7547  138.4696  163.7450 C.ar    1  UNL1        0.0210
     29 C         139.5597  137.7400  162.4490 C.ar    1  UNL1        0.0985
     30 N         140.7101  137.5755  161.5005 N.ar    1  UNL1       -0.2426
     31 C         142.0554  138.1406  161.8480 C.ar    1  UNL1        0.1248
     32 C         142.2503  138.8702  163.1439 C.ar    1  UNL1        0.0207
     33 C         143.2057  137.9761  160.8994 C.3     1  UNL1        0.3581
     34 F         143.1061  138.5076  159.5004 F       1  UNL1       -0.1915
     35 F         144.4556  137.2800  161.3500 F       1  UNL1       -0.1915
@<TRIPOS>BOND
     1     1     2    1
     2     2     3    2
     3     3     4    1
     4     4    15    1
     5    15    16   ar
     6    16    17   ar
     7    17    18   ar
     8    18    19   ar
     9    19    21    1
    10    21    22   ar
    11    22    23   ar
    12    23    24   ar
    13    24    25   ar
    14    25    26   ar
    15    19    20   ar
    16     4    27    1
    17    27    28   ar
    18    28    29   ar
    19    29    30   ar
    20    30    31   ar
    21    31    33    1
    22    33    34    1
    23    33    35    1
    24    31    32   ar
    25     4     5    1
    26     5     6   ar
    27     6     7   ar
    28     7     8    1
    29     7     9   ar
    30     9    10   ar
    31    10    11    1
    32    10    12   ar
    33    12     2    1
    34    20    15   ar
    35    32    27   ar
    36    12     5   ar
    37    26    21   ar
    38     1    13    1
    39     1    14    1
@<TRIPOS>MOLECULE
*****
 35 39 0 0 0
SMALL
GASTEIGER

@<TRIPOS>ATOM
      1 N         144.6254  137.2775  167.3334 N.pl3   1  UNL1       -0.2464
      2 C         143.4498  138.0760  166.8532 C.2     1  UNL1        0.3157
      3 N         142.9976  138.2103  165.4293 N.2     1  UNL1       -0.0614
      4 C         141.7884  139.0977  165.4088 C.3     1  UNL1        0.2309
      5 C         141.4933  139.5117  166.8200 C.ar    1  UNL1        0.0412
      6 C         140.4222  140.3821  167.4075 C.ar    1  UNL1        0.0304
      7 C         140.3780  140.6211  168.8877 C.ar    1  UNL1        0.1422
      8 F         139.3069  141.4915  169.4752 F       1  UNL1       -0.2041
      9 C         141.4048  139.9896  169.7803 C.ar    1  UNL1        0.0595
     10 C         142.4759  139.1192  169.1929 C.ar    1  UNL1        0.1493
     11 F         143.5027  138.4878  170.0856 F       1  UNL1       -0.2039
     12 C         142.5201  138.8803  167.7127 C.ar    1  UNL1        0.1096
     13 H         145.1789  136.7801  166.6888 H       1  UNL1        0.2884
     14 H         144.8434  137.2508  168.2930 H       1  UNL1        0.2884
     15 C         140.5885  139.9351  165.0789 C.ar    1  UNL1        0.0297
     16 C         139.2119  139.4318  165.3982 C.ar    1  UNL1        0.0004
     17 C         138.0119  140.2692  165.0682 C.ar    1  UNL1       -0.0002
     18 C         138.1885  141.6098  164.4190 C.ar    1  UNL1        0.0001
     19 C         139.5650  142.1131  164.0997 C.ar    1  UNL1        0.0028
     20 C         140.7650  141.2757  164.4296 C.ar    1  UNL1        0.0005
     21 C         139.7416  143.4537  163.4504 C.ar    1  UNL1        0.0384
     22 C         138.5993  144.0853  162.7112 C.ar    1  UNL1        0.1022
     23 N         138.7759  145.4259  162.0619 N.ar    1  UNL1       -0.2224
     24 C         140.0947  146.1349  162.1519 C.ar    1  UNL1        0.1989
     25 N         141.2369  145.5034  162.8911 N.ar    1  UNL1       -0.2224
     26 C         141.0603  144.1627  163.5404 C.ar    1  UNL1        0.1022
     27 C         141.8327  138.8587  163.9286 C.ar    1  UNL1        0.0326
     28 C         143.1439  138.8993  163.2012 C.ar    1  UNL1        0.0210
     29 C         143.1881  138.6603  161.7211 C.ar    1  UNL1        0.0985
     30 N         141.9212  138.3807  160.9683 N.ar    1  UNL1       -0.2426
     31 C         140.6100  138.3401  161.6957 C.ar    1  UNL1        0.1248
     32 C         140.5658  138.5791  163.1758 C.ar    1  UNL1        0.0207
     33 C         139.3431  138.0604  160.9429 C.3     1  UNL1        0.3581
     34 F         138.0801  137.7490  161.6898 F       1  UNL1       -0.1915
     35 F         139.3391  138.0922  159.4433 F       1  UNL1       -0.1915
@<TRIPOS>BOND
     1     1     2    1
     2     2     3    2
     3     3     4    1
     4     4    15    1
     5    15    16   ar
     6    16    17   ar
     7    17    18   ar
     8    18    19   ar
     9    19    21    1
    10    21    22   ar
    11    22    23   ar
    12    23    24   ar
    13    24    25   ar
    14    25    26   ar
    15    19    20   ar
    16     4    27    1
    17    27    28   ar
    18    28    29   ar
    19    29    30   ar
    20    30    31   ar
    21    31    33    1
    22    33    34    1
    23    33    35    1
    24    31    32   ar
    25     4     5    1
    26     5     6   ar
    27     6     7   ar
    28     7     8    1
    29     7     9   ar
    30     9    10   ar
    31    10    11    1
    32    10    12   ar
    33    12     2    1
    34    20    15   ar
    35    32    27   ar
    36    12     5   ar
    37    26    21   ar
    38     1    13    1
    39     1    14    1
