@<TRIPOS>MOLECULE
*****
 28 30 0 0 0
SMALL
GASTEIGER

@<TRIPOS>ATOM
      1 C         142.4291  143.5017  161.5501 C.3     1  UNL1        0.0782
      2 C         141.9890  142.1353  161.9850 C.3     1  UNL1        0.0372
      3 C         142.3450  141.6326  163.3527 C.3     1  UNL1        0.0741
      4 N         143.1410  142.4964  164.2856 N.3     1  UNL1       -0.2689
      5 C         143.5811  143.8629  163.8507 C.3     1  UNL1        0.0741
      6 C         143.2251  144.3656  162.4830 C.3     1  UNL1        0.0372
      7 C         142.7864  143.4676  158.9770 C.3     1  UNL1        0.1148
      8 N         142.0731  144.0043  160.1824 N.am    1  UNL1       -0.2790
      9 C         141.0038  145.0437  160.0201 C.2     1  UNL1        0.2301
     10 O         140.6479  145.5464  158.6524 O.2     1  UNL1       -0.2745
     11 C         140.2905  145.5805  161.2255 C.3     1  UNL1        0.1116
     12 C         139.4592  144.6650  162.0745 C.ar    1  UNL1       -0.0131
     13 C         139.3729  144.8878  163.5554 C.ar    1  UNL1       -0.0038
     14 C         138.5415  143.9723  164.4043 C.ar    1  UNL1       -0.0003
     15 C         137.7965  142.8340  163.7724 C.ar    1  UNL1       -0.0000
     16 C         137.8828  142.6113  162.2915 C.ar    1  UNL1       -0.0003
     17 C         138.7141  143.5267  161.4426 C.ar    1  UNL1       -0.0038
     18 C         143.4969  141.9938  165.6533 C.3     1  UNL1        0.0991
     19 C         142.6040  142.2974  166.8197 C.ar    1  UNL1       -0.0062
     20 C         141.1491  142.5850  166.5956 C.ar    1  UNL1       -0.0030
     21 C         140.2561  142.8885  167.7620 C.ar    1  UNL1        0.0036
     22 C         140.8182  142.9045  169.1526 C.ar    1  UNL1        0.0714
     23 C         142.2733  142.6168  169.3768 C.ar    1  UNL1        0.0036
     24 C         143.1662  142.3133  168.2103 C.ar    1  UNL1       -0.0030
     25 C         139.9254  143.2080  170.3191 C.3     1  UNL1        0.4186
     26 F         139.0325  143.5115  171.4855 F       1  UNL1       -0.1659
     27 F         139.5069  141.7686  170.3733 F       1  UNL1       -0.1659
     28 F         140.3439  144.6474  170.2649 F       1  UNL1       -0.1659
@<TRIPOS>BOND
     1     7     8    1
     2     8     9   am
     3     9    10    2
     4     9    11    1
     5    11    12    1
     6    12    13   ar
     7    13    14   ar
     8    14    15   ar
     9    15    16   ar
    10    16    17   ar
    11     8     1    1
    12     1     2    1
    13     2     3    1
    14     3     4    1
    15     4    18    1
    16    18    19    1
    17    19    20   ar
    18    20    21   ar
    19    21    22   ar
    20    22    25    1
    21    25    26    1
    22    25    27    1
    23    25    28    1
    24    22    23   ar
    25    23    24   ar
    26     4     5    1
    27     5     6    1
    28    17    12   ar
    29     6     1    1
    30    24    19   ar
@<TRIPOS>MOLECULE
*****
 28 30 0 0 0
SMALL
GASTEIGER

@<TRIPOS>ATOM
      1 C         139.6645  140.4134  162.0671 C.3     1  UNL1        0.0782
      2 C         139.0073  140.2315  163.4031 C.3     1  UNL1        0.0372
      3 C         139.8160  139.7745  164.5808 C.3     1  UNL1        0.0741
      4 N         141.2820  139.4994  164.4225 N.3     1  UNL1       -0.2689
      5 C         141.9393  139.6812  163.0865 C.3     1  UNL1        0.0741
      6 C         141.1305  140.1382  161.9088 C.3     1  UNL1        0.0372
      7 C         137.9731  139.8989  160.1633 C.3     1  UNL1        0.1148
      8 N         138.8557  140.8704  160.8894 N.am    1  UNL1       -0.2790
      9 C         138.9296  142.2989  160.4377 C.2     1  UNL1        0.2301
     10 O         138.1208  142.7559  159.2600 O.2     1  UNL1       -0.2745
     11 C         139.8122  143.2703  161.1638 C.3     1  UNL1        0.1116
     12 C         139.5279  143.6169  162.5953 C.ar    1  UNL1       -0.0131
     13 C         138.1273  143.9382  163.0252 C.ar    1  UNL1       -0.0038
     14 C         137.8430  144.2847  164.4567 C.ar    1  UNL1       -0.0003
     15 C         138.9594  144.3098  165.4582 C.ar    1  UNL1       -0.0000
     16 C         140.3601  143.9885  165.0283 C.ar    1  UNL1       -0.0003
     17 C         140.6443  143.6420  163.5968 C.ar    1  UNL1       -0.0038
     18 C         142.0908  139.0424  165.6003 C.3     1  UNL1        0.0991
     19 C         142.4060  140.0002  166.7107 C.ar    1  UNL1       -0.0062
     20 C         142.7223  141.4328  166.3983 C.ar    1  UNL1       -0.0030
     21 C         143.0375  142.3907  167.5088 C.ar    1  UNL1        0.0036
     22 C         143.0363  141.9159  168.9317 C.ar    1  UNL1        0.0714
     23 C         142.7199  140.4833  169.2441 C.ar    1  UNL1        0.0036
     24 C         142.4048  139.5255  168.1336 C.ar    1  UNL1       -0.0030
     25 C         143.3515  142.8738  170.0422 C.3     1  UNL1        0.4186
     26 F         143.6666  143.8316  171.1527 F       1  UNL1       -0.1659
     27 F         144.7753  142.4020  170.0450 F       1  UNL1       -0.1659
     28 F         141.9276  143.3455  170.0394 F       1  UNL1       -0.1659
@<TRIPOS>BOND
     1     7     8    1
     2     8     9   am
     3     9    10    2
     4     9    11    1
     5    11    12    1
     6    12    13   ar
     7    13    14   ar
     8    14    15   ar
     9    15    16   ar
    10    16    17   ar
    11     8     1    1
    12     1     2    1
    13     2     3    1
    14     3     4    1
    15     4    18    1
    16    18    19    1
    17    19    20   ar
    18    20    21   ar
    19    21    22   ar
    20    22    25    1
    21    25    26    1
    22    25    27    1
    23    25    28    1
    24    22    23   ar
    25    23    24   ar
    26     4     5    1
    27     5     6    1
    28    17    12   ar
    29     6     1    1
    30    24    19   ar
@<TRIPOS>MOLECULE
*****
 28 30 0 0 0
SMALL
GASTEIGER

@<TRIPOS>ATOM
      1 C         140.7918  138.6815  162.3486 C.3     1  UNL1        0.0782
      2 C         140.7039  140.0914  162.8530 C.3     1  UNL1        0.0372
      3 C         140.3004  140.3561  164.2733 C.3     1  UNL1        0.0741
      4 N         139.9850  139.2109  165.1892 N.3     1  UNL1       -0.2689
      5 C         140.0729  137.8009  164.6848 C.3     1  UNL1        0.0741
      6 C         140.4763  137.5362  163.2646 C.3     1  UNL1        0.0372
      7 C         140.1668  138.4540  159.8372 C.3     1  UNL1        0.1148
      8 N         141.1953  138.4168  160.9284 N.am    1  UNL1       -0.2790
      9 C         142.6273  138.1148  160.5993 C.2     1  UNL1        0.2301
     10 O         143.0307  137.8501  159.1790 O.2     1  UNL1       -0.2745
     11 C         143.6558  138.0776  161.6905 C.3     1  UNL1        0.1116
     12 C         144.2113  139.3573  162.2416 C.ar    1  UNL1       -0.0131
     13 C         144.3022  140.5732  161.3679 C.ar    1  UNL1       -0.0038
     14 C         144.8577  141.8529  161.9190 C.ar    1  UNL1       -0.0003
     15 C         145.3223  141.9167  163.3439 C.ar    1  UNL1       -0.0000
     16 C         145.2313  140.7009  164.2176 C.ar    1  UNL1       -0.0003
     17 C         144.6758  139.4212  163.6664 C.ar    1  UNL1       -0.0038
     18 C         139.5815  139.4756  166.6095 C.3     1  UNL1        0.0991
     19 C         140.4448  140.3326  167.4871 C.ar    1  UNL1       -0.0062
     20 C         141.6772  139.7566  168.1189 C.ar    1  UNL1       -0.0030
     21 C         142.5406  140.6136  168.9966 C.ar    1  UNL1        0.0036
     22 C         142.1715  142.0466  169.2423 C.ar    1  UNL1        0.0714
     23 C         140.9390  142.6225  168.6104 C.ar    1  UNL1        0.0036
     24 C         140.0757  141.7655  167.7328 C.ar    1  UNL1       -0.0030
     25 C         143.0348  142.9036  170.1199 C.3     1  UNL1        0.4186
     26 F         143.8981  143.7606  170.9975 F       1  UNL1       -0.1659
     27 F         141.9038  143.8751  170.2837 F       1  UNL1       -0.1659
     28 F         144.1658  141.9320  169.9561 F       1  UNL1       -0.1659
@<TRIPOS>BOND
     1     7     8    1
     2     8     9   am
     3     9    10    2
     4     9    11    1
     5    11    12    1
     6    12    13   ar
     7    13    14   ar
     8    14    15   ar
     9    15    16   ar
    10    16    17   ar
    11     8     1    1
    12     1     2    1
    13     2     3    1
    14     3     4    1
    15     4    18    1
    16    18    19    1
    17    19    20   ar
    18    20    21   ar
    19    21    22   ar
    20    22    25    1
    21    25    26    1
    22    25    27    1
    23    25    28    1
    24    22    23   ar
    25    23    24   ar
    26     4     5    1
    27     5     6    1
    28    17    12   ar
    29     6     1    1
    30    24    19   ar
@<TRIPOS>MOLECULE
*****
 28 30 0 0 0
SMALL
GASTEIGER

@<TRIPOS>ATOM
      1 C         141.4421  138.7201  162.3016 C.3     1  UNL1        0.0782
      2 C         141.9219  140.0703  162.7450 C.3     1  UNL1        0.0372
      3 C         142.4069  140.2697  164.1503 C.3     1  UNL1        0.0741
      4 N         142.4121  139.1189  165.1123 N.3     1  UNL1       -0.2689
      5 C         141.9323  137.7686  164.6690 C.3     1  UNL1        0.0741
      6 C         141.4473  137.5692  163.2636 C.3     1  UNL1        0.0372
      7 C         141.9372  138.4956  159.7611 C.3     1  UNL1        0.1148
      8 N         140.9571  138.5207  160.8963 N.am    1  UNL1       -0.2790
      9 C         139.4919  138.3465  160.6261 C.2     1  UNL1        0.2301
     10 O         139.0069  138.1471  159.2208 O.2     1  UNL1       -0.2745
     11 C         138.5118  138.3717  161.7613 C.3     1  UNL1        0.1116
     12 C         138.2790  139.6427  162.5232 C.ar    1  UNL1       -0.0131
     13 C         138.4378  139.6630  164.0146 C.ar    1  UNL1       -0.0038
     14 C         138.2050  140.9340  164.7764 C.ar    1  UNL1       -0.0003
     15 C         137.8134  142.1847  164.0468 C.ar    1  UNL1       -0.0000
     16 C         137.6545  142.1644  162.5554 C.ar    1  UNL1       -0.0003
     17 C         137.8873  140.8934  161.7936 C.ar    1  UNL1       -0.0038
     18 C         142.8971  139.3183  166.5177 C.3     1  UNL1        0.0991
     19 C         142.1551  140.2353  167.4441 C.ar    1  UNL1       -0.0062
     20 C         140.7458  139.9155  167.8461 C.ar    1  UNL1       -0.0030
     21 C         140.0037  140.8326  168.7726 C.ar    1  UNL1        0.0036
     22 C         140.6710  142.0694  169.2972 C.ar    1  UNL1        0.0714
     23 C         142.0804  142.3891  168.8952 C.ar    1  UNL1        0.0036
     24 C         142.8224  141.4721  167.9687 C.ar    1  UNL1       -0.0030
     25 C         139.9290  142.9864  170.2237 C.3     1  UNL1        0.4186
     26 F         139.1869  143.9034  171.1502 F       1  UNL1       -0.1659
     27 F         138.8931  141.9244  170.4452 F       1  UNL1       -0.1659
     28 F         140.9648  144.0484  170.0021 F       1  UNL1       -0.1659
@<TRIPOS>BOND
     1     7     8    1
     2     8     9   am
     3     9    10    2
     4     9    11    1
     5    11    12    1
     6    12    13   ar
     7    13    14   ar
     8    14    15   ar
     9    15    16   ar
    10    16    17   ar
    11     8     1    1
    12     1     2    1
    13     2     3    1
    14     3     4    1
    15     4    18    1
    16    18    19    1
    17    19    20   ar
    18    20    21   ar
    19    21    22   ar
    20    22    25    1
    21    25    26    1
    22    25    27    1
    23    25    28    1
    24    22    23   ar
    25    23    24   ar
    26     4     5    1
    27     5     6    1
    28    17    12   ar
    29     6     1    1
    30    24    19   ar
@<TRIPOS>MOLECULE
*****
 28 30 0 0 0
SMALL
GASTEIGER

@<TRIPOS>ATOM
      1 C         141.6200  139.9472  161.8212 C.3     1  UNL1        0.0782
      2 C         142.1088  139.0935  162.9534 C.3     1  UNL1        0.0372
      3 C         142.7185  139.7326  164.1658 C.3     1  UNL1        0.0741
      4 N         142.8393  141.2256  164.2459 N.3     1  UNL1       -0.2689
      5 C         142.3504  142.0794  163.1136 C.3     1  UNL1        0.0741
      6 C         141.7408  141.4403  161.9012 C.3     1  UNL1        0.0372
      7 C         141.8880  138.6452  159.5890 C.3     1  UNL1        0.1148
      8 N         141.0103  139.3081  160.6088 N.am    1  UNL1       -0.2790
      9 C         139.5229  139.3317  160.4164 C.2     1  UNL1        0.2301
     10 O         138.9132  138.6926  159.2041 O.2     1  UNL1       -0.2745
     11 C         138.6451  139.9946  161.4363 C.3     1  UNL1        0.1116
     12 C         138.6140  139.4820  162.8457 C.ar    1  UNL1       -0.0131
     13 C         138.7379  138.0110  163.1118 C.ar    1  UNL1       -0.0038
     14 C         138.7068  137.4986  164.5211 C.ar    1  UNL1       -0.0003
     15 C         138.5518  138.4571  165.6645 C.ar    1  UNL1       -0.0000
     16 C         138.4280  139.9281  165.3984 C.ar    1  UNL1       -0.0003
     17 C         138.4591  140.4405  163.9891 C.ar    1  UNL1       -0.0038
     18 C         143.4489  141.8647  165.4582 C.3     1  UNL1        0.0991
     19 C         142.5896  142.2019  166.6405 C.ar    1  UNL1       -0.0062
     20 C         143.1871  142.2379  168.0159 C.ar    1  UNL1       -0.0030
     21 C         142.3278  142.5751  169.1983 C.ar    1  UNL1        0.0036
     22 C         140.8711  142.8763  169.0052 C.ar    1  UNL1        0.0714
     23 C         140.2736  142.8403  167.6297 C.ar    1  UNL1        0.0036
     24 C         141.1329  142.5031  166.4474 C.ar    1  UNL1       -0.0030
     25 C         140.0118  143.2135  170.1875 C.3     1  UNL1        0.4186
     26 F         139.1525  143.5507  171.3698 F       1  UNL1       -0.1659
     27 F         139.7073  141.7576  170.3815 F       1  UNL1       -0.1659
     28 F         140.3162  144.6694  169.9936 F       1  UNL1       -0.1659
@<TRIPOS>BOND
     1     7     8    1
     2     8     9   am
     3     9    10    2
     4     9    11    1
     5    11    12    1
     6    12    13   ar
     7    13    14   ar
     8    14    15   ar
     9    15    16   ar
    10    16    17   ar
    11     8     1    1
    12     1     2    1
    13     2     3    1
    14     3     4    1
    15     4    18    1
    16    18    19    1
    17    19    20   ar
    18    20    21   ar
    19    21    22   ar
    20    22    25    1
    21    25    26    1
    22    25    27    1
    23    25    28    1
    24    22    23   ar
    25    23    24   ar
    26     4     5    1
    27     5     6    1
    28    17    12   ar
    29     6     1    1
    30    24    19   ar
@<TRIPOS>MOLECULE
*****
 28 30 0 0 0
SMALL
GASTEIGER

@<TRIPOS>ATOM
      1 C         140.4012  139.2584  161.3482 C.3     1  UNL1        0.0782
      2 C         141.3310  140.2631  161.9612 C.3     1  UNL1        0.0372
      3 C         141.9890  139.9710  163.2772 C.3     1  UNL1        0.0741
      4 N         141.7171  138.6742  163.9802 N.3     1  UNL1       -0.2689
      5 C         140.7872  137.6693  163.3672 C.3     1  UNL1        0.0741
      6 C         140.1292  137.9614  162.0512 C.3     1  UNL1        0.0372
      7 C         140.5375  139.4699  158.7624 C.3     1  UNL1        0.1148
      8 N         139.7432  139.5504  160.0322 N.am    1  UNL1       -0.2790
      9 C         138.2909  139.9231  159.9862 C.2     1  UNL1        0.2301
     10 O         137.6330  140.2151  158.6702 O.2     1  UNL1       -0.2745
     11 C         137.4967  140.0036  161.2560 C.3     1  UNL1        0.1116
     12 C         137.7489  141.1169  162.2292 C.ar    1  UNL1       -0.0131
     13 C         137.9363  142.5196  161.7319 C.ar    1  UNL1       -0.0038
     14 C         138.1886  143.6329  162.7050 C.ar    1  UNL1       -0.0003
     15 C         138.2534  143.3434  164.1754 C.ar    1  UNL1       -0.0000
     16 C         138.0659  141.9408  164.6727 C.ar    1  UNL1       -0.0003
     17 C         137.8137  140.8275  163.6995 C.ar    1  UNL1       -0.0038
     18 C         142.3750  138.3821  165.2962 C.3     1  UNL1        0.0991
     19 C         141.9579  139.1325  166.5261 C.ar    1  UNL1       -0.0062
     20 C         140.5999  139.7658  166.5938 C.ar    1  UNL1       -0.0030
     21 C         140.1827  140.5163  167.8238 C.ar    1  UNL1        0.0036
     22 C         141.1237  140.6334  168.9861 C.ar    1  UNL1        0.0714
     23 C         142.4818  140.0001  168.9183 C.ar    1  UNL1        0.0036
     24 C         142.8989  139.2497  167.6884 C.ar    1  UNL1       -0.0030
     25 C         140.7066  141.3839  170.2160 C.3     1  UNL1        0.4186
     26 F         140.2895  142.1343  171.4460 F       1  UNL1       -0.1659
     27 F         142.1279  141.3883  170.6953 F       1  UNL1       -0.1659
     28 F         139.2853  141.3795  169.7367 F       1  UNL1       -0.1659
@<TRIPOS>BOND
     1     7     8    1
     2     8     9   am
     3     9    10    2
     4     9    11    1
     5    11    12    1
     6    12    13   ar
     7    13    14   ar
     8    14    15   ar
     9    15    16   ar
    10    16    17   ar
    11     8     1    1
    12     1     2    1
    13     2     3    1
    14     3     4    1
    15     4    18    1
    16    18    19    1
    17    19    20   ar
    18    20    21   ar
    19    21    22   ar
    20    22    25    1
    21    25    26    1
    22    25    27    1
    23    25    28    1
    24    22    23   ar
    25    23    24   ar
    26     4     5    1
    27     5     6    1
    28    17    12   ar
    29     6     1    1
    30    24    19   ar
@<TRIPOS>MOLECULE
*****
 28 30 0 0 0
SMALL
GASTEIGER

@<TRIPOS>ATOM
      1 C         138.8813  142.1733  161.4825 C.3     1  UNL1        0.0782
      2 C         140.2939  142.0791  161.9784 C.3     1  UNL1        0.0372
      3 C         140.6167  142.4445  163.3969 C.3     1  UNL1        0.0741
      4 N         139.5271  142.9042  164.3196 N.3     1  UNL1       -0.2689
      5 C         138.1145  142.9984  163.8237 C.3     1  UNL1        0.0741
      6 C         137.7916  142.6330  162.4052 C.3     1  UNL1        0.0372
      7 C         138.8652  142.7686  158.9536 C.3     1  UNL1        0.1148
      8 N         138.5585  141.8079  160.0640 N.am    1  UNL1       -0.2790
      9 C         137.9289  140.4817  159.7559 C.2     1  UNL1        0.2301
     10 O         137.6060  140.1163  158.3373 O.2     1  UNL1       -0.2745
     11 C         137.6222  139.5210  160.8662 C.3     1  UNL1        0.1116
     12 C         138.7405  138.8664  161.6220 C.ar    1  UNL1       -0.0131
     13 C         138.5876  138.5764  163.0857 C.ar    1  UNL1       -0.0038
     14 C         139.7059  137.9219  163.8413 C.ar    1  UNL1       -0.0003
     15 C         140.9770  137.5574  163.1333 C.ar    1  UNL1       -0.0000
     16 C         141.1300  137.8475  161.6696 C.ar    1  UNL1       -0.0003
     17 C         140.0117  138.5020  160.9140 C.ar    1  UNL1       -0.0038
     18 C         139.8499  143.2696  165.7381 C.3     1  UNL1        0.0991
     19 C         140.4277  142.2412  166.6646 C.ar    1  UNL1       -0.0062
     20 C         141.6016  142.5880  167.5316 C.ar    1  UNL1       -0.0030
     21 C         142.1795  141.5595  168.4582 C.ar    1  UNL1        0.0036
     22 C         141.5834  140.1843  168.5177 C.ar    1  UNL1        0.0714
     23 C         140.4095  139.8376  167.6506 C.ar    1  UNL1        0.0036
     24 C         139.8317  140.8660  166.7241 C.ar    1  UNL1       -0.0030
     25 C         142.1612  139.1559  169.4442 C.3     1  UNL1        0.4186
     26 F         142.7390  138.1275  170.3707 F       1  UNL1       -0.1659
     27 F         142.9957  138.6137  168.3219 F       1  UNL1       -0.1659
     28 F         141.3267  139.6981  170.5664 F       1  UNL1       -0.1659
@<TRIPOS>BOND
     1     7     8    1
     2     8     9   am
     3     9    10    2
     4     9    11    1
     5    11    12    1
     6    12    13   ar
     7    13    14   ar
     8    14    15   ar
     9    15    16   ar
    10    16    17   ar
    11     8     1    1
    12     1     2    1
    13     2     3    1
    14     3     4    1
    15     4    18    1
    16    18    19    1
    17    19    20   ar
    18    20    21   ar
    19    21    22   ar
    20    22    25    1
    21    25    26    1
    22    25    27    1
    23    25    28    1
    24    22    23   ar
    25    23    24   ar
    26     4     5    1
    27     5     6    1
    28    17    12   ar
    29     6     1    1
    30    24    19   ar
@<TRIPOS>MOLECULE
*****
 28 30 0 0 0
SMALL
GASTEIGER

@<TRIPOS>ATOM
      1 C         141.6845  141.9581  161.4336 C.3     1  UNL1        0.0782
      2 C         140.4248  141.2404  161.8182 C.3     1  UNL1        0.0372
      3 C         140.4555  140.1953  162.8937 C.3     1  UNL1        0.0741
      4 N         141.7460  139.8679  163.5846 N.3     1  UNL1       -0.2689
      5 C         143.0058  140.5856  163.2001 C.3     1  UNL1        0.0741
      6 C         142.9750  141.6307  162.1246 C.3     1  UNL1        0.0372
      7 C         141.6835  142.5955  158.9149 C.3     1  UNL1        0.1148
      8 N         141.6537  143.0033  160.3581 N.am    1  UNL1       -0.2790
      9 C         141.5932  144.4563  160.7258 C.2     1  UNL1        0.2301
     10 O         141.5624  145.5015  159.6503 O.2     1  UNL1       -0.2745
     11 C         141.5634  144.8641  162.1689 C.3     1  UNL1        0.1116
     12 C         140.3711  144.5339  163.0172 C.ar    1  UNL1       -0.0131
     13 C         138.9884  144.6637  162.4506 C.ar    1  UNL1       -0.0038
     14 C         137.7962  144.3335  163.2988 C.ar    1  UNL1       -0.0003
     15 C         137.9868  143.8734  164.7137 C.ar    1  UNL1       -0.0000
     16 C         139.3695  143.7435  165.2804 C.ar    1  UNL1       -0.0003
     17 C         140.5617  144.0738  164.4321 C.ar    1  UNL1       -0.0038
     18 C         141.7767  138.8227  164.6602 C.3     1  UNL1        0.0991
     19 C         141.5620  139.2137  166.0923 C.ar    1  UNL1       -0.0062
     20 C         142.7020  139.1531  167.0652 C.ar    1  UNL1       -0.0030
     21 C         142.4873  139.5441  168.4974 C.ar    1  UNL1        0.0036
     22 C         141.1326  139.9957  168.9566 C.ar    1  UNL1        0.0714
     23 C         139.9926  140.0563  167.9835 C.ar    1  UNL1        0.0036
     24 C         140.2073  139.6653  166.5514 C.ar    1  UNL1       -0.0030
     25 C         140.9179  140.3867  170.3887 C.3     1  UNL1        0.4186
     26 F         140.7032  140.7777  171.8208 F       1  UNL1       -0.1659
     27 F         142.4013  140.4978  170.5808 F       1  UNL1       -0.1659
     28 F         139.4344  140.2757  170.1966 F       1  UNL1       -0.1659
@<TRIPOS>BOND
     1     7     8    1
     2     8     9   am
     3     9    10    2
     4     9    11    1
     5    11    12    1
     6    12    13   ar
     7    13    14   ar
     8    14    15   ar
     9    15    16   ar
    10    16    17   ar
    11     8     1    1
    12     1     2    1
    13     2     3    1
    14     3     4    1
    15     4    18    1
    16    18    19    1
    17    19    20   ar
    18    20    21   ar
    19    21    22   ar
    20    22    25    1
    21    25    26    1
    22    25    27    1
    23    25    28    1
    24    22    23   ar
    25    23    24   ar
    26     4     5    1
    27     5     6    1
    28    17    12   ar
    29     6     1    1
    30    24    19   ar
@<TRIPOS>MOLECULE
*****
 28 30 0 0 0
SMALL
GASTEIGER

@<TRIPOS>ATOM
      1 C         143.6382  141.0440  161.9673 C.3     1  UNL1        0.0782
      2 C         144.8050  140.8187  162.8825 C.3     1  UNL1        0.0372
      3 C         144.7131  141.2149  164.3264 C.3     1  UNL1        0.0741
      4 N         143.4544  141.8363  164.8549 N.3     1  UNL1       -0.2689
      5 C         142.2875  142.0616  163.9397 C.3     1  UNL1        0.0741
      6 C         142.3794  141.6655  162.4959 C.3     1  UNL1        0.0372
      7 C         143.9218  141.6969  159.4687 C.3     1  UNL1        0.1148
      8 N         143.7300  140.6479  160.5235 N.am    1  UNL1       -0.2790
      9 C         143.6301  139.2026  160.1345 C.2     1  UNL1        0.2301
     10 O         143.7220  138.8064  158.6907 O.2     1  UNL1       -0.2745
     11 C         143.4383  138.1535  161.1893 C.3     1  UNL1        0.1116
     12 C         142.1403  138.0698  161.9366 C.ar    1  UNL1       -0.0131
     13 C         142.1421  137.9515  163.4319 C.ar    1  UNL1       -0.0038
     14 C         140.8442  137.8678  164.1791 C.ar    1  UNL1       -0.0003
     15 C         139.5445  137.9024  163.4310 C.ar    1  UNL1       -0.0000
     16 C         139.5427  138.0208  161.9357 C.ar    1  UNL1       -0.0003
     17 C         140.8406  138.1045  161.1885 C.ar    1  UNL1       -0.0038
     18 C         143.3625  142.2324  166.2988 C.3     1  UNL1        0.0991
     19 C         142.2212  141.7425  167.1398 C.ar    1  UNL1       -0.0062
     20 C         141.5691  142.6627  168.1286 C.ar    1  UNL1       -0.0030
     21 C         140.4278  142.1727  168.9697 C.ar    1  UNL1        0.0036
     22 C         139.9386  140.7625  168.8218 C.ar    1  UNL1        0.0714
     23 C         140.5908  139.8422  167.8329 C.ar    1  UNL1        0.0036
     24 C         141.7321  140.3322  166.9919 C.ar    1  UNL1       -0.0030
     25 C         138.7973  140.2725  169.6628 C.3     1  UNL1        0.4186
     26 F         137.6560  139.7825  170.5038 F       1  UNL1       -0.1659
     27 F         139.3194  141.0581  170.8291 F       1  UNL1       -0.1659
     28 F         138.2752  139.4869  168.4966 F       1  UNL1       -0.1659
@<TRIPOS>BOND
     1     7     8    1
     2     8     9   am
     3     9    10    2
     4     9    11    1
     5    11    12    1
     6    12    13   ar
     7    13    14   ar
     8    14    15   ar
     9    15    16   ar
    10    16    17   ar
    11     8     1    1
    12     1     2    1
    13     2     3    1
    14     3     4    1
    15     4    18    1
    16    18    19    1
    17    19    20   ar
    18    20    21   ar
    19    21    22   ar
    20    22    25    1
    21    25    26    1
    22    25    27    1
    23    25    28    1
    24    22    23   ar
    25    23    24   ar
    26     4     5    1
    27     5     6    1
    28    17    12   ar
    29     6     1    1
    30    24    19   ar
