@<TRIPOS>MOLECULE
*****
 33 37 0 0 0
SMALL
GASTEIGER

@<TRIPOS>ATOM
      1 C         141.7426  137.6491  162.8331 C.3     1  UNL1        0.0730
      2 N         140.8358  138.1463  163.9196 N.3     1  UNL1       -0.2724
      3 C         139.3752  137.8353  164.0602 C.3     1  UNL1        0.0724
      4 C         138.8671  138.5386  165.2838 C.3     1  UNL1        0.0214
      5 C         138.6552  139.3421  166.5326 C.3     1  UNL1        0.0072
      6 C         140.0138  139.2843  165.8995 C.3     1  UNL1        0.0350
      7 C         141.2305  139.0419  165.0564 C.3     1  UNL1        0.0761
      8 C         140.6925  140.1678  166.9039 C.ar    1  UNL1       -0.0215
      9 C         142.0155  139.7647  167.4845 C.ar    1  UNL1       -0.0043
     10 C         142.6943  140.6482  168.4889 C.ar    1  UNL1        0.0035
     11 C         142.0500  141.9348  168.9127 C.ar    1  UNL1        0.0714
     12 C         140.7269  142.3379  168.3320 C.ar    1  UNL1        0.0035
     13 C         140.0482  141.4544  167.3276 C.ar    1  UNL1       -0.0043
     14 C         142.7287  142.8182  169.9171 C.3     1  UNL1        0.4186
     15 F         143.4075  143.7017  170.9214 F       1  UNL1       -0.1659
     16 F         143.9647  141.9733  169.8251 F       1  UNL1       -0.1659
     17 F         141.4928  143.6632  170.0090 F       1  UNL1       -0.1659
     18 C         143.1076  138.2472  162.6631 C.3     1  UNL1        0.0294
     19 C         143.7140  138.3555  161.2954 C.3     1  UNL1        0.0666
     20 S         143.8645  139.6993  160.6459 S.3     1  UNL1       -0.0756
     21 C         142.3325  142.7594  162.4773 C.ar    1  UNL1        0.1740
     22 N         143.7948  142.9666  162.7399 N.ar    1  UNL1       -0.1277
     23 N         144.5466  141.8456  162.0858 N.ar    1  UNL1       -0.1221
     24 C         143.5491  140.9454  161.4190 C.ar    1  UNL1        0.1932
     25 N         142.1807  141.5103  161.6610 N.ar    1  UNL1       -0.2880
     26 C         140.8875  140.9280  161.1723 C.3     1  UNL1        0.1340
     27 C         138.5905  144.9510  165.4898 C.3     1  UNL1        0.0594
     28 C         139.4979  144.6531  164.3330 C.ar    1  UNL1        0.0883
     29 N         139.5074  145.3663  163.0135 N.ar    1  UNL1       -0.2469
     30 C         140.5703  144.7438  162.1577 C.ar    1  UNL1        0.0685
     31 C         140.9238  145.1482  160.7571 C.3     1  UNL1        0.0527
     32 C         141.2178  143.6458  162.9484 C.ar    1  UNL1        0.0799
     33 S         140.5550  143.5898  164.2928 S.2     1  UNL1       -0.0680
@<TRIPOS>BOND
     1    27    28    1
     2    28    29   ar
     3    29    30   ar
     4    30    31    1
     5    30    32   ar
     6    32    21    1
     7    21    22   ar
     8    22    23   ar
     9    23    24   ar
    10    24    20    1
    11    20    19    1
    12    19    18    1
    13    18     1    1
    14     1     2    1
    15     2     3    1
    16     4     3    1
    17     4     5    1
    18     5     6    1
    19     6     8    1
    20     8     9   ar
    21     9    10   ar
    22    10    11   ar
    23    11    14    1
    24    14    15    1
    25    14    16    1
    26    14    17    1
    27    11    12   ar
    28    12    13   ar
    29     6     7    1
    30    24    25   ar
    31    25    26    1
    32    32    33   ar
    33    33    28   ar
    34    25    21   ar
    35     7     2    1
    36     6     4    1
    37    13     8   ar
@<TRIPOS>MOLECULE
*****
 33 37 0 0 0
SMALL
GASTEIGER

@<TRIPOS>ATOM
      1 C         141.5024  144.8547  160.9587 C.3     1  UNL1        0.0730
      2 N         140.6942  144.7423  162.2173 N.3     1  UNL1       -0.2724
      3 C         139.3285  145.3203  162.4427 C.3     1  UNL1        0.0724
      4 C         138.8999  144.9674  163.8362 C.3     1  UNL1        0.0214
      5 C         138.7503  144.4719  165.2440 C.3     1  UNL1        0.0072
      6 C         140.0007  144.1712  164.4720 C.3     1  UNL1        0.0350
      7 C         141.1096  144.0321  163.4715 C.3     1  UNL1        0.0761
      8 C         140.6776  143.3981  165.5648 C.ar    1  UNL1       -0.0215
      9 C         141.9895  142.7200  165.3019 C.ar    1  UNL1       -0.0043
     10 C         142.6664  141.9469  166.3947 C.ar    1  UNL1        0.0035
     11 C         142.0314  141.8519  167.7504 C.ar    1  UNL1        0.0714
     12 C         140.7194  142.5301  168.0132 C.ar    1  UNL1        0.0035
     13 C         140.0426  143.3031  166.9204 C.ar    1  UNL1       -0.0043
     14 C         142.7083  141.0788  168.8431 C.3     1  UNL1        0.4186
     15 F         143.3851  140.3058  169.9359 F       1  UNL1       -0.1659
     16 F         141.7556  139.9404  168.6279 F       1  UNL1       -0.1659
     17 F         143.6610  142.2172  169.0584 F       1  UNL1       -0.1659
     18 C         140.8253  145.1708  159.6582 C.3     1  UNL1        0.0294
     19 C         139.8898  144.1754  159.0383 C.3     1  UNL1        0.0666
     20 S         139.9733  142.7277  159.4220 S.3     1  UNL1       -0.0756
     21 C         138.5166  141.0015  162.5784 C.ar    1  UNL1        0.1740
     22 N         137.3464  141.8280  162.1340 N.ar    1  UNL1       -0.1277
     23 N         137.7497  142.5753  160.8976 N.ar    1  UNL1       -0.1221
     24 C         139.1691  142.2105  160.5778 C.ar    1  UNL1        0.1932
     25 N         139.6430  141.2379  161.6167 N.ar    1  UNL1       -0.2880
     26 C         141.0045  140.6116  161.6822 C.3     1  UNL1        0.1340
     27 C         138.5130  139.2700  167.5667 C.3     1  UNL1        0.0594
     28 C         138.5521  139.3014  166.0675 C.ar    1  UNL1        0.0883
     29 N         138.6696  138.1102  165.1635 N.ar    1  UNL1       -0.2469
     30 C         138.6706  138.6021  163.7465 C.ar    1  UNL1        0.0685
     31 C         138.7709  137.7486  162.5170 C.3     1  UNL1        0.0527
     32 C         138.5537  140.0972  163.7748 C.ar    1  UNL1        0.0799
     33 S         138.4804  140.5294  165.2092 S.2     1  UNL1       -0.0680
@<TRIPOS>BOND
     1    27    28    1
     2    28    29   ar
     3    29    30   ar
     4    30    31    1
     5    30    32   ar
     6    32    21    1
     7    21    22   ar
     8    22    23   ar
     9    23    24   ar
    10    24    20    1
    11    20    19    1
    12    19    18    1
    13    18     1    1
    14     1     2    1
    15     2     3    1
    16     4     3    1
    17     4     5    1
    18     5     6    1
    19     6     8    1
    20     8     9   ar
    21     9    10   ar
    22    10    11   ar
    23    11    14    1
    24    14    15    1
    25    14    16    1
    26    14    17    1
    27    11    12   ar
    28    12    13   ar
    29     6     7    1
    30    24    25   ar
    31    25    26    1
    32    32    33   ar
    33    33    28   ar
    34    25    21   ar
    35     7     2    1
    36     6     4    1
    37    13     8   ar
@<TRIPOS>MOLECULE
*****
 33 37 0 0 0
SMALL
GASTEIGER

@<TRIPOS>ATOM
      1 C         144.3979  139.0179  163.2999 C.3     1  UNL1        0.0730
      2 N         144.4231  140.3777  163.9325 N.3     1  UNL1       -0.2724
      3 C         145.3026  141.5229  163.5264 C.3     1  UNL1        0.0724
      4 C         144.9964  142.6841  164.4252 C.3     1  UNL1        0.0214
      5 C         144.4838  143.6479  165.4539 C.3     1  UNL1        0.0072
      6 C         143.9276  142.2565  165.3869 C.3     1  UNL1        0.0350
      7 C         143.5733  140.8311  165.0824 C.3     1  UNL1        0.0761
      8 C         142.9614  142.4190  166.5227 C.ar    1  UNL1       -0.0215
      9 C         143.4591  142.4101  167.9377 C.ar    1  UNL1       -0.0043
     10 C         142.4929  142.5726  169.0737 C.ar    1  UNL1        0.0035
     11 C         141.0291  142.7441  168.7945 C.ar    1  UNL1        0.0714
     12 C         140.5315  142.7530  167.3794 C.ar    1  UNL1        0.0035
     13 C         141.4976  142.5905  166.2436 C.ar    1  UNL1       -0.0043
     14 C         140.0630  142.9066  169.9304 C.3     1  UNL1        0.4186
     15 F         139.0969  143.0691  171.0662 F       1  UNL1       -0.1659
     16 F         140.3710  144.3736  169.9825 F       1  UNL1       -0.1659
     17 F         139.7550  141.4395  169.8782 F       1  UNL1       -0.1659
     18 C         144.0961  138.8765  161.8374 C.3     1  UNL1        0.0294
     19 C         143.0681  137.8864  161.3760 C.3     1  UNL1        0.0666
     20 S         141.7584  138.3670  160.8248 S.3     1  UNL1       -0.0756
     21 C         140.6373  141.9463  161.8232 C.ar    1  UNL1        0.1740
     22 N         140.9851  142.1441  160.3775 N.ar    1  UNL1       -0.1277
     23 N         141.4474  140.8275  159.8276 N.ar    1  UNL1       -0.1221
     24 C         141.3853  139.8158  160.9333 C.ar    1  UNL1        0.1932
     25 N         140.8846  140.5073  162.1666 N.ar    1  UNL1       -0.2880
     26 C         140.6691  139.8713  163.5080 C.3     1  UNL1        0.1340
     27 C         137.5746  144.6215  165.1913 C.3     1  UNL1        0.0594
     28 C         138.7233  144.2318  164.3089 C.ar    1  UNL1        0.0883
     29 N         139.9807  145.0219  164.0979 N.ar    1  UNL1       -0.2469
     30 C         140.8507  144.2620  163.1412 C.ar    1  UNL1        0.0685
     31 C         142.2031  144.6872  162.6509 C.3     1  UNL1        0.0527
     32 C         140.1310  143.0021  162.7607 C.ar    1  UNL1        0.0799
     33 S         138.8162  142.9834  163.4824 S.2     1  UNL1       -0.0680
@<TRIPOS>BOND
     1    27    28    1
     2    28    29   ar
     3    29    30   ar
     4    30    31    1
     5    30    32   ar
     6    32    21    1
     7    21    22   ar
     8    22    23   ar
     9    23    24   ar
    10    24    20    1
    11    20    19    1
    12    19    18    1
    13    18     1    1
    14     1     2    1
    15     2     3    1
    16     4     3    1
    17     4     5    1
    18     5     6    1
    19     6     8    1
    20     8     9   ar
    21     9    10   ar
    22    10    11   ar
    23    11    14    1
    24    14    15    1
    25    14    16    1
    26    14    17    1
    27    11    12   ar
    28    12    13   ar
    29     6     7    1
    30    24    25   ar
    31    25    26    1
    32    32    33   ar
    33    33    28   ar
    34    25    21   ar
    35     7     2    1
    36     6     4    1
    37    13     8   ar
@<TRIPOS>MOLECULE
*****
 33 37 0 0 0
SMALL
GASTEIGER

@<TRIPOS>ATOM
      1 C         140.7829  144.7954  162.4263 C.3     1  UNL1        0.0730
      2 N         141.7736  144.1566  163.3539 N.3     1  UNL1       -0.2724
      3 C         143.2647  144.1616  163.1906 C.3     1  UNL1        0.0724
      4 C         143.8598  143.4088  164.3435 C.3     1  UNL1        0.0214
      5 C         144.1561  142.6204  165.5847 C.3     1  UNL1        0.0072
      6 C         142.7365  142.9385  165.2193 C.3     1  UNL1        0.0350
      7 C         141.4472  143.4007  164.6077 C.3     1  UNL1        0.0761
      8 C         142.1133  142.2490  166.3967 C.ar    1  UNL1       -0.0215
      9 C         142.6793  140.9512  166.8918 C.ar    1  UNL1       -0.0043
     10 C         142.0561  140.2617  168.0692 C.ar    1  UNL1        0.0035
     11 C         140.8668  140.8701  168.7515 C.ar    1  UNL1        0.0714
     12 C         140.3007  142.1680  168.2563 C.ar    1  UNL1        0.0035
     13 C         140.9240  142.8575  167.0789 C.ar    1  UNL1       -0.0043
     14 C         140.2436  140.1807  169.9289 C.3     1  UNL1        0.4186
     15 F         139.6204  139.4912  171.1063 F       1  UNL1       -0.1659
     16 F         141.5111  139.4092  170.1481 F       1  UNL1       -0.1659
     17 F         138.9760  140.9522  169.7097 F       1  UNL1       -0.1659
     18 C         141.2010  145.1952  161.0423 C.3     1  UNL1        0.0294
     19 C         140.4247  144.7089  159.8545 C.3     1  UNL1        0.0666
     20 S         140.1170  143.2482  159.7065 S.3     1  UNL1       -0.0756
     21 C         138.5250  141.0874  162.5103 C.ar    1  UNL1        0.1740
     22 N         137.3437  141.8953  162.0609 N.ar    1  UNL1       -0.1277
     23 N         137.7963  142.8030  160.9560 N.ar    1  UNL1       -0.1221
     24 C         139.2573  142.5562  160.7224 C.ar    1  UNL1        0.1932
     25 N         139.7076  141.4959  161.6830 N.ar    1  UNL1       -0.2880
     26 C         141.0968  140.9414  161.7964 C.3     1  UNL1        0.1340
     27 C         138.1353  138.7713  167.2394 C.3     1  UNL1        0.0594
     28 C         138.3447  138.9881  165.7700 C.ar    1  UNL1        0.0883
     29 N         138.6993  137.9327  164.7648 N.ar    1  UNL1       -0.2469
     30 C         138.8100  138.5906  163.4214 C.ar    1  UNL1        0.0685
     31 C         139.1475  137.9066  162.1298 C.3     1  UNL1        0.0527
     32 C         138.5238  140.0526  163.5963 C.ar    1  UNL1        0.0799
     33 S         138.2363  140.2983  165.0478 S.2     1  UNL1       -0.0680
@<TRIPOS>BOND
     1    27    28    1
     2    28    29   ar
     3    29    30   ar
     4    30    31    1
     5    30    32   ar
     6    32    21    1
     7    21    22   ar
     8    22    23   ar
     9    23    24   ar
    10    24    20    1
    11    20    19    1
    12    19    18    1
    13    18     1    1
    14     1     2    1
    15     2     3    1
    16     4     3    1
    17     4     5    1
    18     5     6    1
    19     6     8    1
    20     8     9   ar
    21     9    10   ar
    22    10    11   ar
    23    11    14    1
    24    14    15    1
    25    14    16    1
    26    14    17    1
    27    11    12   ar
    28    12    13   ar
    29     6     7    1
    30    24    25   ar
    31    25    26    1
    32    32    33   ar
    33    33    28   ar
    34    25    21   ar
    35     7     2    1
    36     6     4    1
    37    13     8   ar
@<TRIPOS>MOLECULE
*****
 33 37 0 0 0
SMALL
GASTEIGER

@<TRIPOS>ATOM
      1 C         144.2487  139.4864  161.2513 C.3     1  UNL1        0.0730
      2 N         144.3417  140.4861  162.3657 N.3     1  UNL1       -0.2724
      3 C         145.0868  141.7872  162.3230 C.3     1  UNL1        0.0724
      4 C         144.9116  142.4655  163.6494 C.3     1  UNL1        0.0214
      5 C         144.5655  142.8902  165.0458 C.3     1  UNL1        0.0072
      6 C         144.0582  141.5835  164.5119 C.3     1  UNL1        0.0350
      7 C         143.7060  140.3602  163.7185 C.3     1  UNL1        0.0761
      8 C         143.3164  141.1843  165.7530 C.ar    1  UNL1       -0.0215
      9 C         142.9222  142.2253  166.7585 C.ar    1  UNL1       -0.0043
     10 C         142.1804  141.8261  167.9997 C.ar    1  UNL1        0.0035
     11 C         141.8329  140.3861  168.2354 C.ar    1  UNL1        0.0714
     12 C         142.2272  139.3452  167.2298 C.ar    1  UNL1        0.0035
     13 C         142.9689  139.7443  165.9886 C.ar    1  UNL1       -0.0043
     14 C         141.0911  139.9870  169.4765 C.3     1  UNL1        0.4186
     15 F         140.3493  139.5878  170.7176 F       1  UNL1       -0.1659
     16 F         140.1468  141.1360  169.2817 F       1  UNL1       -0.1659
     17 F         142.0354  138.8379  169.6713 F       1  UNL1       -0.1659
     18 C         143.6276  139.8772  159.9431 C.3     1  UNL1        0.0294
     19 C         142.9721  138.8371  159.0836 C.3     1  UNL1        0.0666
     20 S         141.4993  138.5810  159.2078 S.3     1  UNL1       -0.0756
     21 C         139.6931  139.9995  162.3368 C.ar    1  UNL1        0.1740
     22 N         139.2084  140.9381  161.2719 N.ar    1  UNL1       -0.1277
     23 N         139.8259  140.5210  159.9703 N.ar    1  UNL1       -0.1221
     24 C         140.6924  139.3246  160.2306 C.ar    1  UNL1        0.1932
     25 N         140.6102  139.0023  161.6932 N.ar    1  UNL1       -0.2880
     26 C         141.3206  137.8797  162.3899 C.3     1  UNL1        0.1340
     27 C         137.8124  138.6737  167.0893 C.3     1  UNL1        0.0594
     28 C         138.4607  139.4399  165.9746 C.ar    1  UNL1        0.0883
     29 N         139.0574  140.8122  166.0785 N.ar    1  UNL1       -0.2469
     30 C         139.5916  141.1888  164.7285 C.ar    1  UNL1        0.0685
     31 C         140.2728  142.4786  164.3782 C.3     1  UNL1        0.0527
     32 C         139.3252  140.0493  163.7902 C.ar    1  UNL1        0.0799
     33 S         138.6263  138.9685  164.5603 S.2     1  UNL1       -0.0680
@<TRIPOS>BOND
     1    27    28    1
     2    28    29   ar
     3    29    30   ar
     4    30    31    1
     5    30    32   ar
     6    32    21    1
     7    21    22   ar
     8    22    23   ar
     9    23    24   ar
    10    24    20    1
    11    20    19    1
    12    19    18    1
    13    18     1    1
    14     1     2    1
    15     2     3    1
    16     4     3    1
    17     4     5    1
    18     5     6    1
    19     6     8    1
    20     8     9   ar
    21     9    10   ar
    22    10    11   ar
    23    11    14    1
    24    14    15    1
    25    14    16    1
    26    14    17    1
    27    11    12   ar
    28    12    13   ar
    29     6     7    1
    30    24    25   ar
    31    25    26    1
    32    32    33   ar
    33    33    28   ar
    34    25    21   ar
    35     7     2    1
    36     6     4    1
    37    13     8   ar
@<TRIPOS>MOLECULE
*****
 33 37 0 0 0
SMALL
GASTEIGER

@<TRIPOS>ATOM
      1 C         140.0243  137.5911  162.5599 C.3     1  UNL1        0.0730
      2 N         141.0998  138.2544  163.3681 N.3     1  UNL1       -0.2724
      3 C         142.5719  138.2068  163.0845 C.3     1  UNL1        0.0724
      4 C         143.2740  139.0048  164.1430 C.3     1  UNL1        0.0214
      5 C         143.6863  139.8496  165.3118 C.3     1  UNL1        0.0072
      6 C         142.2357  139.5456  165.0808 C.3     1  UNL1        0.0350
      7 C         140.8920  139.0818  164.6019 C.3     1  UNL1        0.0761
      8 C         141.7247  140.3094  166.2663 C.ar    1  UNL1       -0.0215
      9 C         142.5832  141.3575  166.9100 C.ar    1  UNL1       -0.0043
     10 C         142.0721  142.1214  168.0956 C.ar    1  UNL1        0.0035
     11 C         140.7026  141.8370  168.6373 C.ar    1  UNL1        0.0714
     12 C         139.8440  140.7889  167.9935 C.ar    1  UNL1        0.0035
     13 C         140.3551  140.0251  166.8080 C.ar    1  UNL1       -0.0043
     14 C         140.1915  142.6008  169.8228 C.3     1  UNL1        0.4186
     15 F         139.6804  143.3646  171.0083 F       1  UNL1       -0.1659
     16 F         140.2869  141.3615  170.6624 F       1  UNL1       -0.1659
     17 F         140.0961  143.8402  168.9832 F       1  UNL1       -0.1659
     18 C         138.5914  137.9949  162.7433 C.3     1  UNL1        0.0294
     19 C         137.7133  138.2088  161.5461 C.3     1  UNL1        0.0666
     20 S         137.6971  139.5406  160.8562 S.3     1  UNL1       -0.0756
     21 C         139.7401  142.4858  162.3451 C.ar    1  UNL1        0.1740
     22 N         138.3808  142.7570  162.9184 N.ar    1  UNL1       -0.1277
     23 N         137.4500  141.6868  162.4304 N.ar    1  UNL1       -0.1221
     24 C         138.2341  140.7541  161.5556 C.ar    1  UNL1        0.1932
     25 N         139.6495  141.2480  161.5029 N.ar    1  UNL1       -0.2880
     26 C         140.7764  140.6151  160.7416 C.3     1  UNL1        0.1340
     27 C         144.0424  144.5684  164.5888 C.3     1  UNL1        0.0594
     28 C         142.9511  144.2655  163.6053 C.ar    1  UNL1        0.0883
     29 N         142.7921  144.8818  162.2470 N.ar    1  UNL1       -0.2469
     30 C         141.5700  144.2902  161.6097 C.ar    1  UNL1        0.0685
     31 C         141.0376  144.6224  160.2472 C.3     1  UNL1        0.0527
     32 C         140.9736  143.3082  162.5740 C.ar    1  UNL1        0.0799
     33 S         141.8272  143.2929  163.8073 S.2     1  UNL1       -0.0680
@<TRIPOS>BOND
     1    27    28    1
     2    28    29   ar
     3    29    30   ar
     4    30    31    1
     5    30    32   ar
     6    32    21    1
     7    21    22   ar
     8    22    23   ar
     9    23    24   ar
    10    24    20    1
    11    20    19    1
    12    19    18    1
    13    18     1    1
    14     1     2    1
    15     2     3    1
    16     4     3    1
    17     4     5    1
    18     5     6    1
    19     6     8    1
    20     8     9   ar
    21     9    10   ar
    22    10    11   ar
    23    11    14    1
    24    14    15    1
    25    14    16    1
    26    14    17    1
    27    11    12   ar
    28    12    13   ar
    29     6     7    1
    30    24    25   ar
    31    25    26    1
    32    32    33   ar
    33    33    28   ar
    34    25    21   ar
    35     7     2    1
    36     6     4    1
    37    13     8   ar
@<TRIPOS>MOLECULE
*****
 33 37 0 0 0
SMALL
GASTEIGER

@<TRIPOS>ATOM
      1 C         137.7234  140.8727  161.3857 C.3     1  UNL1        0.0730
      2 N         138.0601  141.8041  162.5122 N.3     1  UNL1       -0.2724
      3 C         137.7136  143.2618  162.5845 C.3     1  UNL1        0.0724
      4 C         138.2418  143.8000  163.8812 C.3     1  UNL1        0.0214
      5 C         138.8699  144.0442  165.2213 C.3     1  UNL1        0.0072
      6 C         138.9148  142.6751  164.6103 C.3     1  UNL1        0.0350
      7 C         138.8025  141.4416  163.7642 C.3     1  UNL1        0.0761
      8 C         139.6665  142.0262  165.7345 C.ar    1  UNL1       -0.0215
      9 C         140.8248  142.7361  166.3703 C.ar    1  UNL1       -0.0043
     10 C         141.5766  142.0873  167.4946 C.ar    1  UNL1        0.0035
     11 C         141.1700  140.7285  167.9830 C.ar    1  UNL1        0.0714
     12 C         140.0116  140.0186  167.3471 C.ar    1  UNL1        0.0035
     13 C         139.2599  140.6675  166.2228 C.ar    1  UNL1       -0.0043
     14 C         141.9217  140.0797  169.1072 C.3     1  UNL1        0.4186
     15 F         142.6735  139.4308  170.2314 F       1  UNL1       -0.1659
     16 F         143.1877  140.7331  168.6378 F       1  UNL1       -0.1659
     17 F         140.6558  139.4263  169.5766 F       1  UNL1       -0.1659
     18 C         138.5384  140.8930  160.1266 C.3     1  UNL1        0.0294
     19 C         138.8966  142.2012  159.4861 C.3     1  UNL1        0.0666
     20 S         140.3059  142.7101  159.5572 S.3     1  UNL1       -0.0756
     21 C         142.3793  141.8330  162.7190 C.ar    1  UNL1        0.1740
     22 N         142.0657  143.2782  162.9698 N.ar    1  UNL1       -0.1277
     23 N         141.2509  143.7827  161.8159 N.ar    1  UNL1       -0.1221
     24 C         141.0608  142.6492  160.8520 C.ar    1  UNL1        0.1932
     25 N         141.7583  141.4443  161.4102 N.ar    1  UNL1       -0.2880
     26 C         141.8233  140.0885  160.7715 C.3     1  UNL1        0.1340
     27 C         143.6593  138.1569  166.2867 C.3     1  UNL1        0.0594
     28 C         143.7627  139.2446  165.2590 C.ar    1  UNL1        0.0883
     29 N         145.0331  139.8582  164.7495 N.ar    1  UNL1       -0.2469
     30 C         144.6695  140.9024  163.7360 C.ar    1  UNL1        0.0685
     31 C         145.6320  141.7637  162.9732 C.3     1  UNL1        0.0527
     32 C         143.1744  140.9343  163.6192 C.ar    1  UNL1        0.0799
     33 S         142.6140  139.9097  164.5604 S.2     1  UNL1       -0.0680
@<TRIPOS>BOND
     1    27    28    1
     2    28    29   ar
     3    29    30   ar
     4    30    31    1
     5    30    32   ar
     6    32    21    1
     7    21    22   ar
     8    22    23   ar
     9    23    24   ar
    10    24    20    1
    11    20    19    1
    12    19    18    1
    13    18     1    1
    14     1     2    1
    15     2     3    1
    16     4     3    1
    17     4     5    1
    18     5     6    1
    19     6     8    1
    20     8     9   ar
    21     9    10   ar
    22    10    11   ar
    23    11    14    1
    24    14    15    1
    25    14    16    1
    26    14    17    1
    27    11    12   ar
    28    12    13   ar
    29     6     7    1
    30    24    25   ar
    31    25    26    1
    32    32    33   ar
    33    33    28   ar
    34    25    21   ar
    35     7     2    1
    36     6     4    1
    37    13     8   ar
@<TRIPOS>MOLECULE
*****
 33 37 0 0 0
SMALL
GASTEIGER

@<TRIPOS>ATOM
      1 C         139.9772  144.7233  159.3833 C.3     1  UNL1        0.0730
      2 N         139.7311  144.7000  160.8628 N.3     1  UNL1       -0.2724
      3 C         139.6939  145.8945  161.7693 C.3     1  UNL1        0.0724
      4 C         139.4189  145.4109  163.1623 C.3     1  UNL1        0.0214
      5 C         139.1394  144.6441  164.4208 C.3     1  UNL1        0.0072
      6 C         139.2861  143.9175  163.1168 C.3     1  UNL1        0.0350
      7 C         139.4791  143.4782  161.6956 C.3     1  UNL1        0.0761
      8 C         139.0647  142.5438  163.6769 C.ar    1  UNL1       -0.0215
      9 C         138.4760  141.4677  162.8135 C.ar    1  UNL1       -0.0043
     10 C         138.2546  140.0939  163.3737 C.ar    1  UNL1        0.0035
     11 C         138.6220  139.7962  164.7972 C.ar    1  UNL1        0.0714
     12 C         139.2107  140.8724  165.6606 C.ar    1  UNL1        0.0035
     13 C         139.4321  142.2461  165.1005 C.ar    1  UNL1       -0.0043
     14 C         138.4006  138.4225  165.3574 C.3     1  UNL1        0.4186
     15 F         138.1792  137.0487  165.9175 F       1  UNL1       -0.1659
     16 F         139.0518  137.8236  164.1461 F       1  UNL1       -0.1659
     17 F         137.7494  139.0213  166.5687 F       1  UNL1       -0.1659
     18 C         140.2015  143.4398  158.6400 C.3     1  UNL1        0.0294
     19 C         141.4616  143.2403  157.8513 C.3     1  UNL1        0.0666
     20 S         142.7962  143.4324  158.5086 S.3     1  UNL1       -0.0756
     21 C         143.1956  142.0114  162.0983 C.ar    1  UNL1        0.1740
     22 N         143.2048  143.4869  162.3680 N.ar    1  UNL1       -0.1277
     23 N         143.0564  144.1988  161.0562 N.ar    1  UNL1       -0.1221
     24 C         142.9554  143.1633  159.9757 C.ar    1  UNL1        0.1932
     25 N         143.0414  141.8114  160.6198 N.ar    1  UNL1       -0.2880
     26 C         142.9835  140.4912  159.9099 C.3     1  UNL1        0.1340
     27 C         142.0808  137.9027  165.2220 C.3     1  UNL1        0.0594
     28 C         142.8065  139.0378  164.5625 C.ar    1  UNL1        0.0883
     29 N         144.2109  139.4756  164.8559 N.ar    1  UNL1       -0.2469
     30 C         144.5276  140.6427  163.9686 C.ar    1  UNL1        0.0685
     31 C         145.8251  141.3943  163.9298 C.3     1  UNL1        0.0527
     32 C         143.3189  140.9263  163.1267 C.ar    1  UNL1        0.0799
     33 S         142.2553  139.9345  163.4938 S.2     1  UNL1       -0.0680
@<TRIPOS>BOND
     1    27    28    1
     2    28    29   ar
     3    29    30   ar
     4    30    31    1
     5    30    32   ar
     6    32    21    1
     7    21    22   ar
     8    22    23   ar
     9    23    24   ar
    10    24    20    1
    11    20    19    1
    12    19    18    1
    13    18     1    1
    14     1     2    1
    15     2     3    1
    16     4     3    1
    17     4     5    1
    18     5     6    1
    19     6     8    1
    20     8     9   ar
    21     9    10   ar
    22    10    11   ar
    23    11    14    1
    24    14    15    1
    25    14    16    1
    26    14    17    1
    27    11    12   ar
    28    12    13   ar
    29     6     7    1
    30    24    25   ar
    31    25    26    1
    32    32    33   ar
    33    33    28   ar
    34    25    21   ar
    35     7     2    1
    36     6     4    1
    37    13     8   ar
@<TRIPOS>MOLECULE
*****
 33 37 0 0 0
SMALL
GASTEIGER

@<TRIPOS>ATOM
      1 C         144.0528  144.0478  164.3685 C.3     1  UNL1        0.0730
      2 N         142.5532  144.0141  164.3722 N.3     1  UNL1       -0.2724
      3 C         141.6453  145.1262  163.9377 C.3     1  UNL1        0.0724
      4 C         140.2291  144.6618  164.1079 C.3     1  UNL1        0.0214
      5 C         138.9468  143.9331  164.3809 C.3     1  UNL1        0.0072
      6 C         140.2619  143.2627  164.6476 C.3     1  UNL1        0.0350
      7 C         141.6982  142.8624  164.8109 C.3     1  UNL1        0.0761
      8 C         139.6818  141.9708  165.1421 C.ar    1  UNL1       -0.0215
      9 C         138.6874  141.2251  164.3025 C.ar    1  UNL1       -0.0043
     10 C         138.1073  139.9331  164.7970 C.ar    1  UNL1        0.0035
     11 C         138.5217  139.3869  166.1311 C.ar    1  UNL1        0.0714
     12 C         139.5162  140.1327  166.9708 C.ar    1  UNL1        0.0035
     13 C         140.0962  141.4246  166.4763 C.ar    1  UNL1       -0.0043
     14 C         137.9416  138.0950  166.6256 C.3     1  UNL1        0.4186
     15 F         137.3616  136.8032  167.1201 F       1  UNL1       -0.1659
     16 F         138.4858  137.3890  165.4193 F       1  UNL1       -0.1659
     17 F         137.3975  138.8011  167.8320 F       1  UNL1       -0.1659
     18 C         144.8311  142.8435  164.8088 C.3     1  UNL1        0.0294
     19 C         145.2066  141.7875  163.8119 C.3     1  UNL1        0.0666
     20 S         144.9136  141.9932  162.3552 S.3     1  UNL1       -0.0756
     21 C         142.1284  140.1190  160.4072 C.ar    1  UNL1        0.1740
     22 N         143.1261  139.0187  160.6167 N.ar    1  UNL1       -0.1277
     23 N         144.2909  139.5869  161.3719 N.ar    1  UNL1       -0.1221
     24 C         144.0131  141.0383  161.6292 C.ar    1  UNL1        0.1932
     25 N         142.6765  141.3671  161.0329 N.ar    1  UNL1       -0.2880
     26 C         142.0060  142.7087  161.0580 C.3     1  UNL1        0.1340
     27 C         138.2968  140.6185  156.8085 C.3     1  UNL1        0.0594
     28 C         139.0522  140.2228  158.0425 C.ar    1  UNL1        0.0883
     29 N         138.5273  139.3762  159.1640 N.ar    1  UNL1       -0.2469
     30 C         139.6157  139.2343  160.1863 C.ar    1  UNL1        0.0685
     31 C         139.5228  138.4680  161.4725 C.3     1  UNL1        0.0527
     32 C         140.8133  139.9932  159.6966 C.ar    1  UNL1        0.0799
     33 S         140.4650  140.6040  158.3717 S.2     1  UNL1       -0.0680
@<TRIPOS>BOND
     1    27    28    1
     2    28    29   ar
     3    29    30   ar
     4    30    31    1
     5    30    32   ar
     6    32    21    1
     7    21    22   ar
     8    22    23   ar
     9    23    24   ar
    10    24    20    1
    11    20    19    1
    12    19    18    1
    13    18     1    1
    14     1     2    1
    15     2     3    1
    16     4     3    1
    17     4     5    1
    18     5     6    1
    19     6     8    1
    20     8     9   ar
    21     9    10   ar
    22    10    11   ar
    23    11    14    1
    24    14    15    1
    25    14    16    1
    26    14    17    1
    27    11    12   ar
    28    12    13   ar
    29     6     7    1
    30    24    25   ar
    31    25    26    1
    32    32    33   ar
    33    33    28   ar
    34    25    21   ar
    35     7     2    1
    36     6     4    1
    37    13     8   ar
