@<TRIPOS>MOLECULE
*****
 35 38 0 0 0
SMALL
GASTEIGER

@<TRIPOS>ATOM
      1 C         139.0453  139.9104  164.8082 C.ar    1  UNL1        0.0208
      2 C         140.4639  139.8238  165.2876 C.ar    1  UNL1        0.0219
      3 C         140.4461  139.8063  166.7874 C.ar    1  UNL1        0.0961
      4 C         141.5470  139.7311  167.8034 C.ar    1  UNL1        0.0685
      5 C         141.2181  139.7317  169.2670 C.ar    1  UNL1        0.0885
      6 C         139.7885  139.8074  169.7144 C.ar    1  UNL1        0.1263
      7 N         138.6876  139.8826  168.6984 N.ar    1  UNL1       -0.1633
      8 N         139.0164  139.8820  167.2349 N.ar    1  UNL1       -0.2270
      9 C         138.1506  139.9463  166.0116 C.ar    1  UNL1        0.1004
     10 C         138.1091  141.3045  161.2124 C.ar    1  UNL1        0.1387
     11 C         137.7078  140.0394  160.5134 C.ar    1  UNL1        0.0369
     12 C         137.7524  138.7313  161.2460 C.ar    1  UNL1        0.0031
     13 C         138.1983  138.6883  162.6777 C.ar    1  UNL1        0.0002
     14 C         138.5995  139.9534  163.3766 C.ar    1  UNL1        0.0046
     15 C         138.5549  141.2616  162.6440 C.ar    1  UNL1        0.0369
     16 C         138.5704  142.7006  159.0704 C.3     1  UNL1        0.2525
     17 O         138.0645  142.6127  160.4797 O.3     1  UNL1       -0.4714
     18 C         142.3191  139.6566  170.2831 C.2     1  UNL1        0.2456
     19 N         142.4084  140.6868  171.3697 N.am    1  UNL1       -0.3252
     20 O         143.3306  138.5512  170.2125 O.2     1  UNL1       -0.2703
     21 H         141.7445  141.4122  171.4160 H       1  UNL1        0.1453
     22 H         143.1310  140.6375  172.0366 H       1  UNL1        0.1453
     23 N         142.9767  139.6554  167.3560 N.pl3   1  UNL1       -0.3327
     24 H         143.5886  139.0051  167.7708 H       1  UNL1        0.1468
     25 C         143.4742  140.5705  166.2766 C.3     1  UNL1        0.0702
     26 C         143.3585  142.0660  166.2659 C.3     1  UNL1        0.0208
     27 C         143.9875  142.5705  165.0011 C.3     1  UNL1        0.0160
     28 C         144.4920  141.3869  164.2301 C.3     1  UNL1        0.0404
     29 C         144.9341  142.4207  163.2372 C.3     1  UNL1        0.0156
     30 N         145.0889  140.4194  163.2516 N.3     1  UNL1       -0.3231
     31 C         144.1748  140.1508  165.0184 C.3     1  UNL1        0.0282
     32 C         144.8380  139.4416  163.8751 C.3     1  UNL1        0.0029
     33 C         143.9962  138.7665  165.5677 C.3     1  UNL1        0.0029
     34 H         145.4690  140.9317  162.4557 H       1  UNL1        0.1188
     35 H         144.3678  139.7746  162.9280 H       1  UNL1        0.1188
@<TRIPOS>BOND
     1    16    17    1
     2    17    10    1
     3    10    11   ar
     4    11    12   ar
     5    12    13   ar
     6    13    14   ar
     7    14     1    1
     8     1     2   ar
     9     2     3   ar
    10     3     4   ar
    11     4    23    1
    12    25    23    1
    13    25    26    1
    14    26    27    1
    15    27    28    1
    16    28    29    1
    17    28    30    1
    18    28    31    1
    19    31    32    1
    20    31    33    1
    21     4     5   ar
    22     5    18    1
    23    18    19   am
    24    18    20    2
    25     5     6   ar
    26     6     7   ar
    27     7     8   ar
    28     8     9   ar
    29    14    15   ar
    30    15    10   ar
    31     9     1   ar
    32     8     3   ar
    33    31    25    1
    34    23    24    1
    35    30    34    1
    36    30    35    1
    37    19    21    1
    38    19    22    1
@<TRIPOS>MOLECULE
*****
 35 38 0 0 0
SMALL
GASTEIGER

@<TRIPOS>ATOM
      1 C         140.5575  140.3163  166.0828 C.ar    1  UNL1        0.0208
      2 C         141.2285  141.0752  164.9765 C.ar    1  UNL1        0.0219
      3 C         141.3427  140.1628  163.7914 C.ar    1  UNL1        0.0961
      4 C         141.9158  140.3656  162.4202 C.ar    1  UNL1        0.0685
      5 C         141.8885  139.2455  161.4227 C.ar    1  UNL1        0.0885
      6 C         141.2882  137.9228  161.7966 C.ar    1  UNL1        0.1263
      7 N         140.7151  137.7200  163.1679 N.ar    1  UNL1       -0.1633
      8 N         140.7423  138.8400  164.1653 N.ar    1  UNL1       -0.2270
      9 C         140.2571  138.9348  165.5814 C.ar    1  UNL1        0.1004
     10 C         139.2481  140.4952  169.8249 C.ar    1  UNL1        0.1387
     11 C         139.6121  141.9050  170.1855 C.ar    1  UNL1        0.0369
     12 C         140.2912  142.7852  169.1786 C.ar    1  UNL1        0.0031
     13 C         140.6064  142.2556  167.8110 C.ar    1  UNL1        0.0002
     14 C         140.2424  140.8458  167.4504 C.ar    1  UNL1        0.0046
     15 C         139.5632  139.9656  168.4573 C.ar    1  UNL1        0.0369
     16 C         137.0990  139.3393  170.7167 C.3     1  UNL1        0.2525
     17 O         138.5689  139.6150  170.8318 O.3     1  UNL1       -0.4714
     18 C         142.4617  139.4483  160.0514 C.2     1  UNL1        0.2456
     19 N         143.6251  138.6190  159.5946 N.am    1  UNL1       -0.3252
     20 O         141.8714  140.4804  159.1369 O.2     1  UNL1       -0.2703
     21 H         144.0126  137.9416  160.1948 H       1  UNL1        0.1453
     22 H         144.0013  138.7521  158.6946 H       1  UNL1        0.1453
     23 N         142.5162  141.6884  162.0462 N.pl3   1  UNL1       -0.3327
     24 H         143.4876  141.7662  161.9063 H       1  UNL1        0.1468
     25 C         141.6365  142.8926  161.8855 C.3     1  UNL1        0.0702
     26 C         140.4659  143.0115  160.9552 C.3     1  UNL1        0.0208
     27 C         139.8788  144.3818  161.1215 C.3     1  UNL1        0.0160
     28 C         140.6866  145.1098  162.1546 C.3     1  UNL1        0.0404
     29 C         139.7273  146.2314  161.8868 C.3     1  UNL1        0.0156
     30 N         141.2939  146.0723  163.1318 N.3     1  UNL1       -0.3231
     31 C         141.7729  144.1895  162.6268 C.3     1  UNL1        0.0282
     32 C         142.1531  145.3444  163.5053 C.3     1  UNL1        0.0029
     33 C         142.9387  143.5106  163.2826 C.3     1  UNL1        0.0029
     34 H         140.7721  146.9486  163.1147 H       1  UNL1        0.1188
     35 H         142.2650  146.2497  162.8754 H       1  UNL1        0.1188
@<TRIPOS>BOND
     1    16    17    1
     2    17    10    1
     3    10    11   ar
     4    11    12   ar
     5    12    13   ar
     6    13    14   ar
     7    14     1    1
     8     1     2   ar
     9     2     3   ar
    10     3     4   ar
    11     4    23    1
    12    25    23    1
    13    25    26    1
    14    26    27    1
    15    27    28    1
    16    28    29    1
    17    28    30    1
    18    28    31    1
    19    31    32    1
    20    31    33    1
    21     4     5   ar
    22     5    18    1
    23    18    19   am
    24    18    20    2
    25     5     6   ar
    26     6     7   ar
    27     7     8   ar
    28     8     9   ar
    29    14    15   ar
    30    15    10   ar
    31     9     1   ar
    32     8     3   ar
    33    31    25    1
    34    23    24    1
    35    30    34    1
    36    30    35    1
    37    19    21    1
    38    19    22    1
@<TRIPOS>MOLECULE
*****
 35 38 0 0 0
SMALL
GASTEIGER

@<TRIPOS>ATOM
      1 C         141.5434  140.6303  166.8907 C.ar    1  UNL1        0.0208
      2 C         140.5431  140.9436  165.8177 C.ar    1  UNL1        0.0219
      3 C         140.5230  139.7950  164.8531 C.ar    1  UNL1        0.0961
      4 C         139.7328  139.5487  163.6021 C.ar    1  UNL1        0.0685
      5 C         139.9306  138.2791  162.8280 C.ar    1  UNL1        0.0885
      6 C         140.9184  137.2561  163.3048 C.ar    1  UNL1        0.1263
      7 N         141.7086  137.5024  164.5557 N.ar    1  UNL1       -0.1633
      8 N         141.5109  138.7719  165.3299 N.ar    1  UNL1       -0.2270
      9 C         142.1415  139.2881  166.5892 C.ar    1  UNL1        0.1004
     10 C         141.1770  143.2588  169.8413 C.ar    1  UNL1        0.1387
     11 C         142.5697  143.2558  170.3983 C.ar    1  UNL1        0.0369
     12 C         143.6204  142.3776  169.7861 C.ar    1  UNL1        0.0031
     13 C         143.2782  141.5024  168.6168 C.ar    1  UNL1        0.0002
     14 C         141.8855  141.5054  168.0599 C.ar    1  UNL1        0.0046
     15 C         140.8348  142.3837  168.6721 C.ar    1  UNL1        0.0369
     16 C         139.0148  143.5287  171.2562 C.3     1  UNL1        0.2525
     17 O         140.1263  144.1371  170.4535 O.3     1  UNL1       -0.4714
     18 C         139.1404  138.0327  161.5770 C.2     1  UNL1        0.2456
     19 N         137.7261  137.5412  161.6678 N.am    1  UNL1       -0.3252
     20 O         139.7645  138.2778  160.2352 O.2     1  UNL1       -0.2703
     21 H         137.3165  137.3804  162.5485 H       1  UNL1        0.1453
     22 H         137.2074  137.3795  160.8468 H       1  UNL1        0.1453
     23 N         138.7449  140.5717  163.1253 N.pl3   1  UNL1       -0.3327
     24 H         137.7792  140.4021  163.2136 H       1  UNL1        0.1468
     25 C         139.2285  141.8532  162.5138 C.3     1  UNL1        0.0702
     26 C         140.4153  142.0059  161.6094 C.3     1  UNL1        0.0208
     27 C         140.5305  143.4540  161.2360 C.3     1  UNL1        0.0160
     28 C         139.4148  144.1965  161.9098 C.3     1  UNL1        0.0404
     29 C         140.0123  145.3934  161.2313 C.3     1  UNL1        0.0156
     30 N         138.4240  145.1892  162.4417 N.3     1  UNL1       -0.3231
     31 C         138.6101  143.2072  162.6995 C.3     1  UNL1        0.0282
     32 C         137.7875  144.4067  163.0663 C.3     1  UNL1        0.0029
     33 C         137.6335  142.4686  163.5659 C.3     1  UNL1        0.0029
     34 H         138.6514  146.1189  162.0890 H       1  UNL1        0.1188
     35 H         138.4611  145.1938  163.4610 H       1  UNL1        0.1188
@<TRIPOS>BOND
     1    16    17    1
     2    17    10    1
     3    10    11   ar
     4    11    12   ar
     5    12    13   ar
     6    13    14   ar
     7    14     1    1
     8     1     2   ar
     9     2     3   ar
    10     3     4   ar
    11     4    23    1
    12    25    23    1
    13    25    26    1
    14    26    27    1
    15    27    28    1
    16    28    29    1
    17    28    30    1
    18    28    31    1
    19    31    32    1
    20    31    33    1
    21     4     5   ar
    22     5    18    1
    23    18    19   am
    24    18    20    2
    25     5     6   ar
    26     6     7   ar
    27     7     8   ar
    28     8     9   ar
    29    14    15   ar
    30    15    10   ar
    31     9     1   ar
    32     8     3   ar
    33    31    25    1
    34    23    24    1
    35    30    34    1
    36    30    35    1
    37    19    21    1
    38    19    22    1
@<TRIPOS>MOLECULE
*****
 35 38 0 0 0
SMALL
GASTEIGER

@<TRIPOS>ATOM
      1 C         139.4142  140.1327  166.0753 C.ar    1  UNL1        0.0208
      2 C         139.4531  141.0299  164.8738 C.ar    1  UNL1        0.0219
      3 C         139.2068  140.1869  163.6578 C.ar    1  UNL1        0.0961
      4 C         139.1318  140.5275  162.1989 C.ar    1  UNL1        0.0685
      5 C         138.8656  139.4498  161.1899 C.ar    1  UNL1        0.0885
      6 C         138.6744  138.0318  161.6398 C.ar    1  UNL1        0.1263
      7 N         138.7493  137.6913  163.0987 N.ar    1  UNL1       -0.1633
      8 N         139.0155  138.7688  164.1077 N.ar    1  UNL1       -0.2270
      9 C         139.1437  138.7353  165.6018 C.ar    1  UNL1        0.1004
     10 C         140.7721  142.0851  169.2524 C.ar    1  UNL1        0.1387
     11 C         140.0049  141.4091  170.3499 C.ar    1  UNL1        0.0369
     12 C         139.0408  140.3077  170.0225 C.ar    1  UNL1        0.0031
     13 C         138.8439  139.8822  168.5976 C.ar    1  UNL1        0.0002
     14 C         139.6111  140.5582  167.5001 C.ar    1  UNL1        0.0046
     15 C         140.5752  141.6597  167.8275 C.ar    1  UNL1        0.0369
     16 C         142.9919  142.8824  170.3418 C.3     1  UNL1        0.2525
     17 O         141.7362  143.1866  169.5798 O.3     1  UNL1       -0.4714
     18 C         138.7907  139.7904  159.7309 C.2     1  UNL1        0.2456
     19 N         139.2641  138.8036  158.7051 N.am    1  UNL1       -0.3252
     20 O         138.2424  141.1177  159.2978 O.2     1  UNL1       -0.2703
     21 H         139.6240  137.9325  158.9894 H       1  UNL1        0.1453
     22 H         139.2149  139.0272  157.7476 H       1  UNL1        0.1453
     23 N         139.3231  141.9456  161.7488 N.pl3   1  UNL1       -0.3327
     24 H         138.6488  142.3749  161.1742 H       1  UNL1        0.1468
     25 C         140.5417  142.7096  162.1745 C.3     1  UNL1        0.0702
     26 C         141.9345  142.1621  162.2767 C.3     1  UNL1        0.0208
     27 C         142.8351  143.2693  162.7380 C.3     1  UNL1        0.0160
     28 C         141.9990  144.5012  162.9209 C.3     1  UNL1        0.0404
     29 C         143.2984  145.1322  163.3251 C.3     1  UNL1        0.0156
     30 N         141.4345  145.8649  163.1882 N.3     1  UNL1       -0.3231
     31 C         140.5816  144.1553  162.5726 C.3     1  UNL1        0.0282
     32 C         140.3134  145.5914  162.9128 C.3     1  UNL1        0.0029
     33 C         139.1082  144.1095  162.2954 C.3     1  UNL1        0.0029
     34 H         142.1823  146.4889  163.4914 H       1  UNL1        0.1188
     35 H         140.7264  145.8024  163.9197 H       1  UNL1        0.1188
@<TRIPOS>BOND
     1    16    17    1
     2    17    10    1
     3    10    11   ar
     4    11    12   ar
     5    12    13   ar
     6    13    14   ar
     7    14     1    1
     8     1     2   ar
     9     2     3   ar
    10     3     4   ar
    11     4    23    1
    12    25    23    1
    13    25    26    1
    14    26    27    1
    15    27    28    1
    16    28    29    1
    17    28    30    1
    18    28    31    1
    19    31    32    1
    20    31    33    1
    21     4     5   ar
    22     5    18    1
    23    18    19   am
    24    18    20    2
    25     5     6   ar
    26     6     7   ar
    27     7     8   ar
    28     8     9   ar
    29    14    15   ar
    30    15    10   ar
    31     9     1   ar
    32     8     3   ar
    33    31    25    1
    34    23    24    1
    35    30    34    1
    36    30    35    1
    37    19    21    1
    38    19    22    1
@<TRIPOS>MOLECULE
*****
 35 38 0 0 0
SMALL
GASTEIGER

@<TRIPOS>ATOM
      1 C         139.3003  141.6209  163.4779 C.ar    1  UNL1        0.0208
      2 C         140.4333  142.5251  163.0922 C.ar    1  UNL1        0.0219
      3 C         140.1855  143.0079  161.6938 C.ar    1  UNL1        0.0961
      4 C         140.9649  143.9210  160.7944 C.ar    1  UNL1        0.0685
      5 C         140.4581  144.2282  159.4164 C.ar    1  UNL1        0.0885
      6 C         139.1721  143.6225  158.9379 C.ar    1  UNL1        0.1263
      7 N         138.3927  142.7095  159.8373 N.ar    1  UNL1       -0.1633
      8 N         138.8994  142.4022  161.2153 N.ar    1  UNL1       -0.2270
      9 C         138.3523  141.5449  162.3179 C.ar    1  UNL1        0.1004
     10 C         139.7130  140.7138  167.3194 C.ar    1  UNL1        0.1387
     11 C         138.8280  139.5071  167.4224 C.ar    1  UNL1        0.0369
     12 C         138.1004  139.0050  166.2106 C.ar    1  UNL1        0.0031
     13 C         138.2579  139.7096  164.8958 C.ar    1  UNL1        0.0002
     14 C         139.1429  140.9163  164.7927 C.ar    1  UNL1        0.0046
     15 C         139.8705  141.4184  166.0045 C.ar    1  UNL1        0.0369
     16 C         140.6833  142.6859  168.7047 C.3     1  UNL1        0.2525
     17 O         140.4406  141.2159  168.5312 O.3     1  UNL1       -0.4714
     18 C         141.2375  145.1413  158.5170 C.2     1  UNL1        0.2456
     19 N         140.5407  146.2548  157.7927 N.am    1  UNL1       -0.3252
     20 O         142.7137  144.9408  158.3418 O.2     1  UNL1       -0.2703
     21 H         139.5718  146.3864  157.9077 H       1  UNL1        0.1453
     22 H         141.0522  146.8541  157.2024 H       1  UNL1        0.1453
     23 N         142.2511  144.5268  161.2729 N.pl3   1  UNL1       -0.3327
     24 H         142.4033  145.4950  161.1810 H       1  UNL1        0.1468
     25 C         143.3051  143.6572  161.8916 C.3     1  UNL1        0.0702
     26 C         144.0230  142.5263  161.2166 C.3     1  UNL1        0.0208
     27 C         144.9880  141.9360  162.2016 C.3     1  UNL1        0.0160
     28 C         144.8665  142.7020  163.4855 C.3     1  UNL1        0.0404
     29 C         145.9275  141.7572  163.9665 C.3     1  UNL1        0.0156
     30 N         144.9668  143.2706  164.8699 N.3     1  UNL1       -0.3231
     31 C         143.8264  143.7658  163.2939 C.3     1  UNL1        0.0282
     32 C         144.1441  144.1120  164.7184 C.3     1  UNL1        0.0029
     33 C         142.8528  144.9019  163.4001 C.3     1  UNL1        0.0029
     34 H         145.6667  142.7520  165.4005 H       1  UNL1        0.1188
     35 H         144.0622  143.1944  165.3351 H       1  UNL1        0.1188
@<TRIPOS>BOND
     1    16    17    1
     2    17    10    1
     3    10    11   ar
     4    11    12   ar
     5    12    13   ar
     6    13    14   ar
     7    14     1    1
     8     1     2   ar
     9     2     3   ar
    10     3     4   ar
    11     4    23    1
    12    25    23    1
    13    25    26    1
    14    26    27    1
    15    27    28    1
    16    28    29    1
    17    28    30    1
    18    28    31    1
    19    31    32    1
    20    31    33    1
    21     4     5   ar
    22     5    18    1
    23    18    19   am
    24    18    20    2
    25     5     6   ar
    26     6     7   ar
    27     7     8   ar
    28     8     9   ar
    29    14    15   ar
    30    15    10   ar
    31     9     1   ar
    32     8     3   ar
    33    31    25    1
    34    23    24    1
    35    30    34    1
    36    30    35    1
    37    19    21    1
    38    19    22    1
@<TRIPOS>MOLECULE
*****
 35 38 0 0 0
SMALL
GASTEIGER

@<TRIPOS>ATOM
      1 C         140.4568  140.1763  166.0813 C.ar    1  UNL1        0.0208
      2 C         139.8466  140.6349  164.7900 C.ar    1  UNL1        0.0219
      3 C         140.3715  139.7580  163.6921 C.ar    1  UNL1        0.0961
      4 C         140.1192  139.7413  162.2136 C.ar    1  UNL1        0.0685
      5 C         140.8015  138.7240  161.3478 C.ar    1  UNL1        0.0885
      6 C         141.7360  137.7234  161.9604 C.ar    1  UNL1        0.1263
      7 N         141.9883  137.7401  163.4390 N.ar    1  UNL1       -0.1633
      8 N         141.3061  138.7574  164.3048 N.ar    1  UNL1       -0.2270
      9 C         141.3587  139.0159  165.7814 C.ar    1  UNL1        0.1004
     10 C         139.2562  140.5697  169.8435 C.ar    1  UNL1        0.1387
     11 C         139.7121  141.9672  170.1419 C.ar    1  UNL1        0.0369
     12 C         140.4162  142.7677  169.0868 C.ar    1  UNL1        0.0031
     13 C         140.6644  142.1707  167.7333 C.ar    1  UNL1        0.0002
     14 C         140.2085  140.7732  167.4348 C.ar    1  UNL1        0.0046
     15 C         139.5044  139.9726  168.4899 C.ar    1  UNL1        0.0369
     16 C         137.1528  139.2831  170.6622 C.3     1  UNL1        0.2525
     17 O         138.5520  139.7691  170.8985 O.3     1  UNL1       -0.4714
     18 C         140.5492  138.7073  159.8691 C.2     1  UNL1        0.2456
     19 N         141.6728  138.4136  158.9198 N.am    1  UNL1       -0.3252
     20 O         139.1733  138.9845  159.3399 O.2     1  UNL1       -0.2703
     21 H         142.5759  138.2317  159.2672 H       1  UNL1        0.1453
     22 H         141.5072  138.4026  157.9494 H       1  UNL1        0.1453
     23 N         139.1846  140.7419  161.6008 N.pl3   1  UNL1       -0.3327
     24 H         138.3220  140.4468  161.2293 H       1  UNL1        0.1468
     25 C         139.5645  142.1923  161.5541 C.3     1  UNL1        0.0702
     26 C         140.8089  142.7584  160.9369 C.3     1  UNL1        0.0208
     27 C         140.7801  144.2471  161.1177 C.3     1  UNL1        0.0160
     28 C         139.5178  144.6012  161.8466 C.3     1  UNL1        0.0404
     29 C         140.0275  146.0066  161.7239 C.3     1  UNL1        0.0156
     30 N         138.3621  145.2490  162.5499 N.3     1  UNL1       -0.3231
     31 C         138.7665  143.3313  162.1163 C.3     1  UNL1        0.0282
     32 C         137.7678  144.2446  162.7632 C.3     1  UNL1        0.0029
     33 C         137.8065  142.2522  162.5212 C.3     1  UNL1        0.0029
     34 H         138.5066  146.2582  162.5828 H       1  UNL1        0.1188
     35 H         138.2944  144.8841  163.4999 H       1  UNL1        0.1188
@<TRIPOS>BOND
     1    16    17    1
     2    17    10    1
     3    10    11   ar
     4    11    12   ar
     5    12    13   ar
     6    13    14   ar
     7    14     1    1
     8     1     2   ar
     9     2     3   ar
    10     3     4   ar
    11     4    23    1
    12    25    23    1
    13    25    26    1
    14    26    27    1
    15    27    28    1
    16    28    29    1
    17    28    30    1
    18    28    31    1
    19    31    32    1
    20    31    33    1
    21     4     5   ar
    22     5    18    1
    23    18    19   am
    24    18    20    2
    25     5     6   ar
    26     6     7   ar
    27     7     8   ar
    28     8     9   ar
    29    14    15   ar
    30    15    10   ar
    31     9     1   ar
    32     8     3   ar
    33    31    25    1
    34    23    24    1
    35    30    34    1
    36    30    35    1
    37    19    21    1
    38    19    22    1
@<TRIPOS>MOLECULE
*****
 35 38 0 0 0
SMALL
GASTEIGER

@<TRIPOS>ATOM
      1 C         140.8396  142.6859  166.7550 C.ar    1  UNL1        0.0208
      2 C         141.6959  142.6400  165.5243 C.ar    1  UNL1        0.0219
      3 C         140.9989  143.4150  164.4456 C.ar    1  UNL1        0.0961
      4 C         141.3700  143.7106  163.0226 C.ar    1  UNL1        0.0685
      5 C         140.4539  144.5310  162.1636 C.ar    1  UNL1        0.0885
      6 C         139.1670  145.0558  162.7275 C.ar    1  UNL1        0.1263
      7 N         138.7959  144.7602  164.1505 N.ar    1  UNL1       -0.1633
      8 N         139.7119  143.9398  165.0095 N.ar    1  UNL1       -0.2270
      9 C         139.6134  143.4892  166.4369 C.ar    1  UNL1        0.1004
     10 C         140.4119  140.6183  170.1154 C.ar    1  UNL1        0.1387
     11 C         141.7834  140.7530  170.7076 C.ar    1  UNL1        0.0369
     12 C         142.8403  141.5320  169.9823 C.ar    1  UNL1        0.0031
     13 C         142.5257  142.1763  168.6648 C.ar    1  UNL1        0.0002
     14 C         141.1541  142.0416  168.0725 C.ar    1  UNL1        0.0046
     15 C         140.0972  141.2626  168.7978 C.ar    1  UNL1        0.0369
     16 C         137.9491  139.8160  170.3181 C.3     1  UNL1        0.2525
     17 O         139.3550  139.8393  170.8406 O.3     1  UNL1       -0.4714
     18 C         140.8250  144.8266  160.7405 C.2     1  UNL1        0.2456
     19 N         139.7521  145.0166  159.7096 N.am    1  UNL1       -0.3252
     20 O         142.2690  144.9322  160.3484 O.2     1  UNL1       -0.2703
     21 H         138.8044  144.9473  159.9670 H       1  UNL1        0.1453
     22 H         139.9957  145.2106  158.7756 H       1  UNL1        0.1453
     23 N         142.6570  143.1857  162.4585 N.pl3   1  UNL1       -0.3327
     24 H         143.4017  143.8028  162.2743 H       1  UNL1        0.1468
     25 C         142.8094  141.7207  162.1751 C.3     1  UNL1        0.0702
     26 C         141.9303  140.8999  161.2787 C.3     1  UNL1        0.0208
     27 C         142.4453  139.4911  161.2879 C.3     1  UNL1        0.0160
     28 C         143.6427  139.4412  162.1899 C.3     1  UNL1        0.0404
     29 C         143.6691  137.9894  161.8137 C.3     1  UNL1        0.0156
     30 N         144.8456  139.0877  163.0133 N.3     1  UNL1       -0.3231
     31 C         143.8678  140.8191  162.7382 C.3     1  UNL1        0.0282
     32 C         145.0237  140.1776  163.4471 C.3     1  UNL1        0.0029
     33 C         144.3345  142.0629  163.4347 C.3     1  UNL1        0.0029
     34 H         145.0542  138.0955  162.9020 H       1  UNL1        0.1188
     35 H         144.6558  139.2871  163.9955 H       1  UNL1        0.1188
@<TRIPOS>BOND
     1    16    17    1
     2    17    10    1
     3    10    11   ar
     4    11    12   ar
     5    12    13   ar
     6    13    14   ar
     7    14     1    1
     8     1     2   ar
     9     2     3   ar
    10     3     4   ar
    11     4    23    1
    12    25    23    1
    13    25    26    1
    14    26    27    1
    15    27    28    1
    16    28    29    1
    17    28    30    1
    18    28    31    1
    19    31    32    1
    20    31    33    1
    21     4     5   ar
    22     5    18    1
    23    18    19   am
    24    18    20    2
    25     5     6   ar
    26     6     7   ar
    27     7     8   ar
    28     8     9   ar
    29    14    15   ar
    30    15    10   ar
    31     9     1   ar
    32     8     3   ar
    33    31    25    1
    34    23    24    1
    35    30    34    1
    36    30    35    1
    37    19    21    1
    38    19    22    1
@<TRIPOS>MOLECULE
*****
 35 38 0 0 0
SMALL
GASTEIGER

@<TRIPOS>ATOM
      1 C         142.6338  139.3525  163.2881 C.ar    1  UNL1        0.0208
      2 C         141.3824  139.8432  163.9538 C.ar    1  UNL1        0.0219
      3 C         141.5836  139.7593  165.4379 C.ar    1  UNL1        0.0961
      4 C         140.6917  140.1068  166.5928 C.ar    1  UNL1        0.0685
      5 C         141.1757  139.9119  167.9992 C.ar    1  UNL1        0.0885
      6 C         142.5513  139.3694  168.2506 C.ar    1  UNL1        0.1263
      7 N         143.4431  139.0219  167.0957 N.ar    1  UNL1       -0.1633
      8 N         142.9593  139.2168  165.6894 N.ar    1  UNL1       -0.2270
      9 C         143.6084  138.9654  164.3607 C.ar    1  UNL1        0.1004
     10 C         143.7154  140.3341  159.5980 C.ar    1  UNL1        0.1387
     11 C         143.3405  139.0881  158.8517 C.ar    1  UNL1        0.0369
     12 C         142.7301  137.9302  159.5842 C.ar    1  UNL1        0.0031
     13 C         142.4945  138.0184  161.0630 C.ar    1  UNL1        0.0002
     14 C         142.8694  139.2644  161.8093 C.ar    1  UNL1        0.0046
     15 C         143.4798  140.4223  161.0768 C.ar    1  UNL1        0.0369
     16 C         143.6028  142.8048  158.8022 C.3     1  UNL1        0.2525
     17 O         144.3258  141.4920  158.8654 O.3     1  UNL1       -0.4714
     18 C         140.2838  140.2594  169.1542 C.2     1  UNL1        0.2456
     19 N         140.8073  141.1027  170.2788 N.am    1  UNL1       -0.3252
     20 O         138.8684  139.7636  169.1845 O.2     1  UNL1       -0.2703
     21 H         141.7363  141.4281  170.2589 H       1  UNL1        0.1453
     22 H         140.2220  141.3308  171.0368 H       1  UNL1        0.1453
     23 N         139.3160  140.6493  166.3414 N.pl3   1  UNL1       -0.3327
     24 H         138.5315  140.2035  166.7352 H       1  UNL1        0.1468
     25 C         139.1356  141.8711  165.4901 C.3     1  UNL1        0.0702
     26 C         139.8079  143.1961  165.6958 C.3     1  UNL1        0.0208
     27 C         139.3391  144.1263  164.6165 C.3     1  UNL1        0.0160
     28 C         138.3771  143.3761  163.7437 C.3     1  UNL1        0.0404
     29 C         138.2983  144.6696  162.9883 C.3     1  UNL1        0.0156
     30 N         137.3987  142.8964  162.7130 N.3     1  UNL1       -0.3231
     31 C         138.2514  141.9824  164.2836 C.3     1  UNL1        0.0282
     32 C         137.2992  141.7939  163.1399 C.3     1  UNL1        0.0029
     33 C         137.9266  140.5492  164.5844 C.3     1  UNL1        0.0029
     34 H         137.1920  143.6538  162.0618 H       1  UNL1        0.1188
     35 H         136.5382  142.5994  163.1732 H       1  UNL1        0.1188
@<TRIPOS>BOND
     1    16    17    1
     2    17    10    1
     3    10    11   ar
     4    11    12   ar
     5    12    13   ar
     6    13    14   ar
     7    14     1    1
     8     1     2   ar
     9     2     3   ar
    10     3     4   ar
    11     4    23    1
    12    25    23    1
    13    25    26    1
    14    26    27    1
    15    27    28    1
    16    28    29    1
    17    28    30    1
    18    28    31    1
    19    31    32    1
    20    31    33    1
    21     4     5   ar
    22     5    18    1
    23    18    19   am
    24    18    20    2
    25     5     6   ar
    26     6     7   ar
    27     7     8   ar
    28     8     9   ar
    29    14    15   ar
    30    15    10   ar
    31     9     1   ar
    32     8     3   ar
    33    31    25    1
    34    23    24    1
    35    30    34    1
    36    30    35    1
    37    19    21    1
    38    19    22    1
@<TRIPOS>MOLECULE
*****
 35 38 0 0 0
SMALL
GASTEIGER

@<TRIPOS>ATOM
      1 C         140.2035  138.7265  162.9639 C.ar    1  UNL1        0.0208
      2 C         140.8389  139.6433  163.9668 C.ar    1  UNL1        0.0219
      3 C         140.0684  139.5331  165.2490 C.ar    1  UNL1        0.0961
      4 C         140.2354  140.2023  166.5810 C.ar    1  UNL1        0.0685
      5 C         139.2907  139.8866  167.7026 C.ar    1  UNL1        0.0885
      6 C         138.1791  138.9018  167.4922 C.ar    1  UNL1        0.1263
      7 N         138.0121  138.2325  166.1602 N.ar    1  UNL1       -0.1633
      8 N         138.9568  138.5482  165.0386 N.ar    1  UNL1       -0.2270
      9 C         139.0403  138.0497  163.6263 C.ar    1  UNL1        0.1004
     10 C         140.1291  138.4962  159.0027 C.ar    1  UNL1        0.1387
     11 C         141.5506  138.1140  158.7141 C.ar    1  UNL1        0.0369
     12 C         142.5231  137.9360  159.8422 C.ar    1  UNL1        0.0031
     13 C         142.0740  138.1401  161.2588 C.ar    1  UNL1        0.0002
     14 C         140.6525  138.5224  161.5473 C.ar    1  UNL1        0.0046
     15 C         139.6800  138.7004  160.4193 C.ar    1  UNL1        0.0369
     16 C         139.4803  139.6071  156.7455 C.3     1  UNL1        0.2525
     17 O         139.1566  138.6743  157.8746 O.3     1  UNL1       -0.4714
     18 C         139.4577  140.5559  169.0347 C.2     1  UNL1        0.2456
     19 N         139.0803  139.8294  170.2916 N.am    1  UNL1       -0.3252
     20 O         140.0020  141.9517  169.1097 O.2     1  UNL1       -0.2703
     21 H         138.7231  138.9133  170.2423 H       1  UNL1        0.1453
     22 H         139.1899  140.2687  171.1658 H       1  UNL1        0.1453
     23 N         141.3470  141.1873  166.7914 N.pl3   1  UNL1       -0.3327
     24 H         141.9836  141.0604  167.5316 H       1  UNL1        0.1468
     25 C         141.4886  142.3656  165.8741 C.3     1  UNL1        0.0702
     26 C         140.3669  143.2022  165.3339 C.3     1  UNL1        0.0208
     27 C         140.9618  144.2679  164.4619 C.3     1  UNL1        0.0160
     28 C         142.4512  144.0899  164.4631 C.3     1  UNL1        0.0404
     29 C         142.4363  145.2803  163.5507 C.3     1  UNL1        0.0156
     30 N         143.9374  144.1607  164.2736 N.3     1  UNL1       -0.3231
     31 C         142.7768  142.9142  165.3359 C.3     1  UNL1        0.0282
     32 C         144.1951  143.2308  164.9640 C.3     1  UNL1        0.0029
     33 C         143.3988  141.8048  166.1310 C.3     1  UNL1        0.0029
     34 H         144.1646  144.9395  163.6552 H       1  UNL1        0.1188
     35 H         144.2693  143.2897  163.8594 H       1  UNL1        0.1188
@<TRIPOS>BOND
     1    16    17    1
     2    17    10    1
     3    10    11   ar
     4    11    12   ar
     5    12    13   ar
     6    13    14   ar
     7    14     1    1
     8     1     2   ar
     9     2     3   ar
    10     3     4   ar
    11     4    23    1
    12    25    23    1
    13    25    26    1
    14    26    27    1
    15    27    28    1
    16    28    29    1
    17    28    30    1
    18    28    31    1
    19    31    32    1
    20    31    33    1
    21     4     5   ar
    22     5    18    1
    23    18    19   am
    24    18    20    2
    25     5     6   ar
    26     6     7   ar
    27     7     8   ar
    28     8     9   ar
    29    14    15   ar
    30    15    10   ar
    31     9     1   ar
    32     8     3   ar
    33    31    25    1
    34    23    24    1
    35    30    34    1
    36    30    35    1
    37    19    21    1
    38    19    22    1
