@<TRIPOS>MOLECULE
*****
 32 35 0 0 0
SMALL
GASTEIGER

@<TRIPOS>ATOM
      1 C         141.7824  142.9136  163.5819 C.3     1  UNL1        0.1753
      2 C         141.7822  143.4494  162.1808 C.ar    1  UNL1        0.0089
      3 C         142.7549  143.2996  161.0488 C.ar    1  UNL1       -0.0021
      4 C         142.4825  143.9659  159.7329 C.ar    1  UNL1       -0.0003
      5 C         141.2375  144.7821  159.5490 C.ar    1  UNL1        0.0001
      6 C         140.2649  144.9320  160.6810 C.ar    1  UNL1        0.0043
      7 C         140.5373  144.2656  161.9969 C.ar    1  UNL1        0.0517
      8 C         139.7681  144.2342  163.2843 C.2     1  UNL1        0.2496
      9 O         138.4591  144.9183  163.5461 O.2     1  UNL1       -0.2699
     10 N         140.5376  143.3986  164.2639 N.am    1  UNL1       -0.2620
     11 N         142.9088  140.5873  163.8466 N.am    1  UNL1       -0.3059
     12 C         142.8416  142.0452  164.1935 C.2     1  UNL1        0.2448
     13 O         143.8335  142.6345  165.1520 O.2     1  UNL1       -0.2729
     14 H         142.2578  140.2005  163.2176 H       1  UNL1        0.1494
     15 C         144.9414  140.1672  163.4088 C.3     1  UNL1        0.0196
     16 C         143.9679  139.7189  164.4583 C.3     1  UNL1        0.0569
     17 C         142.9944  139.2707  165.5077 C.3     1  UNL1        0.0196
     18 C         145.0270  138.8506  165.0699 C.3     1  UNL1        0.0196
     19 C         140.1333  143.1004  165.6772 C.3     1  UNL1        0.1212
     20 C         139.5814  141.7512  166.0307 C.ar    1  UNL1       -0.0023
     21 C         138.6592  141.0458  165.0809 C.ar    1  UNL1       -0.0026
     22 C         138.1073  139.6966  165.4343 C.ar    1  UNL1       -0.0003
     23 C         138.4776  139.0526  166.7375 C.ar    1  UNL1       -0.0000
     24 C         139.3998  139.7579  167.6872 C.ar    1  UNL1       -0.0003
     25 C         139.9518  141.1072  167.3338 C.ar    1  UNL1       -0.0024
     26 C         140.8740  141.8125  168.2835 C.ar    1  UNL1       -0.0001
     27 C         140.3314  142.8408  169.2314 C.ar    1  UNL1        0.0023
     28 C         141.2536  143.5461  170.1811 C.ar    1  UNL1        0.0296
     29 C         142.7185  143.2232  170.1830 C.ar    1  UNL1        0.1401
     30 F         143.6407  143.9285  171.1328 F       1  UNL1       -0.2042
     31 C         143.2611  142.1949  169.2352 C.ar    1  UNL1        0.0296
     32 C         142.3388  141.4896  168.2855 C.ar    1  UNL1        0.0023
@<TRIPOS>BOND
     1    15    16    1
     2    16    17    1
     3    16    18    1
     4    16    11    1
     5    11    12   am
     6    12    13    2
     7    12     1    1
     8     1     2    1
     9     2     3   ar
    10     3     4   ar
    11     4     5   ar
    12     5     6   ar
    13     6     7   ar
    14     7     8    1
    15     8     9    2
    16     8    10   am
    17    10    19    1
    18    19    20    1
    19    20    21   ar
    20    21    22   ar
    21    22    23   ar
    22    23    24   ar
    23    24    25   ar
    24    25    26    1
    25    26    27   ar
    26    27    28   ar
    27    28    29   ar
    28    29    30    1
    29    29    31   ar
    30    31    32   ar
    31    10     1    1
    32    25    20   ar
    33    32    26   ar
    34     7     2   ar
    35    11    14    1
@<TRIPOS>MOLECULE
*****
 32 35 0 0 0
SMALL
GASTEIGER

@<TRIPOS>ATOM
      1 C         140.0933  141.5810  164.0360 C.3     1  UNL1        0.1753
      2 C         139.6698  140.1860  163.6827 C.ar    1  UNL1        0.0089
      3 C         139.5164  139.4872  162.3644 C.ar    1  UNL1       -0.0021
      4 C         139.0657  138.0572  162.3216 C.ar    1  UNL1       -0.0003
      5 C         138.7685  137.3260  163.5972 C.ar    1  UNL1        0.0001
      6 C         138.9219  138.0248  164.9155 C.ar    1  UNL1        0.0043
      7 C         139.3726  139.4548  164.9583 C.ar    1  UNL1        0.0517
      8 C         139.6124  140.3979  166.0998 C.2     1  UNL1        0.2496
      9 O         139.4376  140.0823  167.5558 O.2     1  UNL1       -0.2699
     10 N         140.0579  141.7119  165.5298 N.am    1  UNL1       -0.2620
     11 N         139.4247  143.4350  162.3431 N.am    1  UNL1       -0.3059
     12 C         140.4838  142.6562  163.0657 C.2     1  UNL1        0.2448
     13 O         141.9331  142.9527  162.8179 O.2     1  UNL1       -0.2729
     14 H         138.4734  143.2405  162.5057 H       1  UNL1        0.1494
     15 C         139.7852  145.5209  162.4809 C.3     1  UNL1        0.0196
     16 C         139.8152  144.5103  161.3728 C.3     1  UNL1        0.0569
     17 C         139.8451  143.4995  160.2649 C.3     1  UNL1        0.0196
     18 C         140.2056  145.5854  160.4026 C.3     1  UNL1        0.0196
     19 C         140.4067  142.9411  166.3157 C.3     1  UNL1        0.1212
     20 C         141.0895  142.8127  167.6451 C.ar    1  UNL1       -0.0023
     21 C         140.3529  143.1642  168.9036 C.ar    1  UNL1       -0.0026
     22 C         141.0357  143.0357  170.2330 C.ar    1  UNL1       -0.0003
     23 C         142.4551  142.5559  170.3039 C.ar    1  UNL1       -0.0000
     24 C         143.1917  142.2044  169.0454 C.ar    1  UNL1       -0.0003
     25 C         142.5089  142.3328  167.7159 C.ar    1  UNL1       -0.0024
     26 C         143.2455  141.9813  166.4574 C.ar    1  UNL1       -0.0001
     27 C         143.1772  140.5850  165.9135 C.ar    1  UNL1        0.0023
     28 C         143.9138  140.2335  164.6551 C.ar    1  UNL1        0.0296
     29 C         144.7187  141.2783  163.9404 C.ar    1  UNL1        0.1401
     30 F         145.4553  140.9269  162.6819 F       1  UNL1       -0.2042
     31 C         144.7869  142.6746  164.4843 C.ar    1  UNL1        0.0296
     32 C         144.0503  143.0260  165.7429 C.ar    1  UNL1        0.0023
@<TRIPOS>BOND
     1    15    16    1
     2    16    17    1
     3    16    18    1
     4    16    11    1
     5    11    12   am
     6    12    13    2
     7    12     1    1
     8     1     2    1
     9     2     3   ar
    10     3     4   ar
    11     4     5   ar
    12     5     6   ar
    13     6     7   ar
    14     7     8    1
    15     8     9    2
    16     8    10   am
    17    10    19    1
    18    19    20    1
    19    20    21   ar
    20    21    22   ar
    21    22    23   ar
    22    23    24   ar
    23    24    25   ar
    24    25    26    1
    25    26    27   ar
    26    27    28   ar
    27    28    29   ar
    28    29    30    1
    29    29    31   ar
    30    31    32   ar
    31    10     1    1
    32    25    20   ar
    33    32    26   ar
    34     7     2   ar
    35    11    14    1
@<TRIPOS>MOLECULE
*****
 32 35 0 0 0
SMALL
GASTEIGER

@<TRIPOS>ATOM
      1 C         141.5159  142.1382  164.0350 C.3     1  UNL1        0.1753
      2 C         142.9315  142.0000  163.5585 C.ar    1  UNL1        0.0089
      3 C         143.5109  141.6853  162.2112 C.ar    1  UNL1       -0.0021
      4 C         144.9985  141.6123  162.0330 C.ar    1  UNL1       -0.0003
      5 C         145.9067  141.8540  163.2021 C.ar    1  UNL1        0.0001
      6 C         145.3273  142.1688  164.5494 C.ar    1  UNL1        0.0043
      7 C         143.8397  142.2417  164.7276 C.ar    1  UNL1        0.0517
      8 C         142.9854  142.5293  165.9265 C.2     1  UNL1        0.2496
      9 O         143.4804  142.8284  167.3106 O.2     1  UNL1       -0.2699
     10 N         141.5492  142.4653  165.4985 N.am    1  UNL1       -0.2620
     11 N         139.8663  140.6141  162.7287 N.am    1  UNL1       -0.3059
     12 C         140.2834  141.9774  163.1953 C.2     1  UNL1        0.2448
     13 O         139.4681  143.1798  162.8220 O.2     1  UNL1       -0.2729
     14 H         140.4014  139.8249  162.9737 H       1  UNL1        0.1494
     15 C         139.4822  140.4068  160.6529 C.3     1  UNL1        0.0196
     16 C         138.6338  140.4534  161.8890 C.3     1  UNL1        0.0569
     17 C         137.7855  140.5000  163.1252 C.3     1  UNL1        0.0196
     18 C         137.4014  140.2927  161.0494 C.3     1  UNL1        0.0196
     19 C         140.3558  142.6892  166.3793 C.3     1  UNL1        0.1212
     20 C         140.3726  142.2107  167.8008 C.ar    1  UNL1       -0.0023
     21 C         140.3574  143.2024  168.9262 C.ar    1  UNL1       -0.0026
     22 C         140.3741  142.7239  170.3477 C.ar    1  UNL1       -0.0003
     23 C         140.4060  141.2538  170.6439 C.ar    1  UNL1       -0.0000
     24 C         140.4211  140.2622  169.5186 C.ar    1  UNL1       -0.0003
     25 C         140.4044  140.7406  168.0970 C.ar    1  UNL1       -0.0024
     26 C         140.4196  139.7489  166.9717 C.ar    1  UNL1       -0.0001
     27 C         141.7256  139.2901  166.3939 C.ar    1  UNL1        0.0023
     28 C         141.7408  138.2985  165.2686 C.ar    1  UNL1        0.0296
     29 C         140.4500  137.7656  164.7210 C.ar    1  UNL1        0.1401
     30 F         140.4651  136.7739  163.5957 F       1  UNL1       -0.2042
     31 C         139.1440  138.2244  165.2988 C.ar    1  UNL1        0.0296
     32 C         139.1288  139.2161  166.4242 C.ar    1  UNL1        0.0023
@<TRIPOS>BOND
     1    15    16    1
     2    16    17    1
     3    16    18    1
     4    16    11    1
     5    11    12   am
     6    12    13    2
     7    12     1    1
     8     1     2    1
     9     2     3   ar
    10     3     4   ar
    11     4     5   ar
    12     5     6   ar
    13     6     7   ar
    14     7     8    1
    15     8     9    2
    16     8    10   am
    17    10    19    1
    18    19    20    1
    19    20    21   ar
    20    21    22   ar
    21    22    23   ar
    22    23    24   ar
    23    24    25   ar
    24    25    26    1
    25    26    27   ar
    26    27    28   ar
    27    28    29   ar
    28    29    30    1
    29    29    31   ar
    30    31    32   ar
    31    10     1    1
    32    25    20   ar
    33    32    26   ar
    34     7     2   ar
    35    11    14    1
@<TRIPOS>MOLECULE
*****
 32 35 0 0 0
SMALL
GASTEIGER

@<TRIPOS>ATOM
      1 C         141.4684  142.3073  163.9104 C.3     1  UNL1        0.1753
      2 C         140.1076  142.8662  163.6172 C.ar    1  UNL1        0.0089
      3 C         139.3361  143.0110  162.3391 C.ar    1  UNL1       -0.0021
      4 C         137.9662  143.6218  162.3551 C.ar    1  UNL1       -0.0003
      5 C         137.3679  144.0878  163.6492 C.ar    1  UNL1        0.0001
      6 C         138.1394  143.9429  164.9274 C.ar    1  UNL1        0.0043
      7 C         139.5092  143.3321  164.9114 C.ar    1  UNL1        0.0517
      8 C         140.5002  143.0612  166.0043 C.2     1  UNL1        0.2496
      9 O         140.3132  143.3695  167.4604 O.2     1  UNL1       -0.2699
     10 N         141.7110  142.4278  165.3857 N.am    1  UNL1       -0.2620
     11 N         142.2560  140.3102  162.4469 N.am    1  UNL1       -0.3059
     12 C         142.4195  141.7293  162.9047 C.2     1  UNL1        0.2448
     13 O         143.5341  142.5703  162.3568 O.2     1  UNL1       -0.2729
     14 H         141.5244  139.7581  162.8065 H       1  UNL1        0.1494
     15 C         142.2569  140.0901  160.3371 C.3     1  UNL1        0.0196
     16 C         143.2071  139.7322  161.4413 C.3     1  UNL1        0.0569
     17 C         144.1572  139.3744  162.5455 C.3     1  UNL1        0.0196
     18 C         144.1582  139.1543  160.4357 C.3     1  UNL1        0.0196
     19 C         142.9474  141.9915  166.1144 C.3     1  UNL1        0.1212
     20 C         142.8452  141.4595  167.5132 C.ar    1  UNL1       -0.0023
     21 C         143.4528  142.2232  168.6524 C.ar    1  UNL1       -0.0026
     22 C         143.3506  141.6912  170.0511 C.ar    1  UNL1       -0.0003
     23 C         142.6407  140.3955  170.3107 C.ar    1  UNL1       -0.0000
     24 C         142.0331  139.6319  169.1716 C.ar    1  UNL1       -0.0003
     25 C         142.1353  140.1639  167.7728 C.ar    1  UNL1       -0.0024
     26 C         141.5277  139.4002  166.6337 C.ar    1  UNL1       -0.0001
     27 C         140.0685  139.5532  166.3219 C.ar    1  UNL1        0.0023
     28 C         139.4608  138.7895  165.1828 C.ar    1  UNL1        0.0296
     29 C         140.3125  137.8728  164.3555 C.ar    1  UNL1        0.1401
     30 F         139.7048  137.1091  163.2164 F       1  UNL1       -0.2042
     31 C         141.7717  137.7198  164.6673 C.ar    1  UNL1        0.0296
     32 C         142.3793  138.4835  165.8065 C.ar    1  UNL1        0.0023
@<TRIPOS>BOND
     1    15    16    1
     2    16    17    1
     3    16    18    1
     4    16    11    1
     5    11    12   am
     6    12    13    2
     7    12     1    1
     8     1     2    1
     9     2     3   ar
    10     3     4   ar
    11     4     5   ar
    12     5     6   ar
    13     6     7   ar
    14     7     8    1
    15     8     9    2
    16     8    10   am
    17    10    19    1
    18    19    20    1
    19    20    21   ar
    20    21    22   ar
    21    22    23   ar
    22    23    24   ar
    23    24    25   ar
    24    25    26    1
    25    26    27   ar
    26    27    28   ar
    27    28    29   ar
    28    29    30    1
    29    29    31   ar
    30    31    32   ar
    31    10     1    1
    32    25    20   ar
    33    32    26   ar
    34     7     2   ar
    35    11    14    1
@<TRIPOS>MOLECULE
*****
 32 35 0 0 0
SMALL
GASTEIGER

@<TRIPOS>ATOM
      1 C         141.1034  141.8018  166.6046 C.3     1  UNL1        0.1753
      2 C         141.0765  142.1012  168.0742 C.ar    1  UNL1        0.0089
      3 C         140.4622  143.2221  168.8591 C.ar    1  UNL1       -0.0021
      4 C         140.6027  143.2573  170.3520 C.ar    1  UNL1       -0.0003
      5 C         141.3575  142.1716  171.0601 C.ar    1  UNL1        0.0001
      6 C         141.9718  141.0506  170.2753 C.ar    1  UNL1        0.0043
      7 C         141.8313  141.0154  168.7823 C.ar    1  UNL1        0.0517
      8 C         142.3247  140.0451  167.7504 C.2     1  UNL1        0.2496
      9 O         143.1271  138.8062  168.0174 O.2     1  UNL1       -0.2699
     10 N         141.8749  140.5311  166.4045 N.am    1  UNL1       -0.2620
     11 N         138.9935  142.5345  165.2773 N.am    1  UNL1       -0.3059
     12 C         140.4701  142.6281  165.5248 C.2     1  UNL1        0.2448
     13 O         141.3131  143.5481  164.6925 O.2     1  UNL1       -0.2729
     14 H         138.4401  141.9307  165.8236 H       1  UNL1        0.1494
     15 C         138.3198  144.5401  165.1237 C.3     1  UNL1        0.0196
     16 C         138.3602  143.3608  164.1975 C.3     1  UNL1        0.0569
     17 C         138.4005  142.1816  163.2714 C.3     1  UNL1        0.0196
     18 C         137.7268  144.1872  163.1177 C.3     1  UNL1        0.0196
     19 C         142.1484  139.8635  165.0893 C.3     1  UNL1        0.1212
     20 C         141.0463  139.1444  164.3697 C.ar    1  UNL1       -0.0023
     21 C         140.0469  138.3368  165.1438 C.ar    1  UNL1       -0.0026
     22 C         138.9448  137.6177  164.4242 C.ar    1  UNL1       -0.0003
     23 C         138.8418  137.7060  162.9303 C.ar    1  UNL1       -0.0000
     24 C         139.8411  138.5135  162.1561 C.ar    1  UNL1       -0.0003
     25 C         140.9433  139.2327  162.8758 C.ar    1  UNL1       -0.0024
     26 C         141.9426  140.0402  162.1016 C.ar    1  UNL1       -0.0001
     27 C         141.7093  141.5045  161.8746 C.ar    1  UNL1        0.0023
     28 C         142.7085  142.3120  161.1004 C.ar    1  UNL1        0.0296
     29 C         143.9412  141.6552  160.5532 C.ar    1  UNL1        0.1401
     30 F         144.9404  142.4627  159.7790 F       1  UNL1       -0.2042
     31 C         144.1745  140.1910  160.7803 C.ar    1  UNL1        0.0296
     32 C         143.1751  139.3835  161.5545 C.ar    1  UNL1        0.0023
@<TRIPOS>BOND
     1    15    16    1
     2    16    17    1
     3    16    18    1
     4    16    11    1
     5    11    12   am
     6    12    13    2
     7    12     1    1
     8     1     2    1
     9     2     3   ar
    10     3     4   ar
    11     4     5   ar
    12     5     6   ar
    13     6     7   ar
    14     7     8    1
    15     8     9    2
    16     8    10   am
    17    10    19    1
    18    19    20    1
    19    20    21   ar
    20    21    22   ar
    21    22    23   ar
    22    23    24   ar
    23    24    25   ar
    24    25    26    1
    25    26    27   ar
    26    27    28   ar
    27    28    29   ar
    28    29    30    1
    29    29    31   ar
    30    31    32   ar
    31    10     1    1
    32    25    20   ar
    33    32    26   ar
    34     7     2   ar
    35    11    14    1
@<TRIPOS>MOLECULE
*****
 32 35 0 0 0
SMALL
GASTEIGER

@<TRIPOS>ATOM
      1 C         141.5893  142.2188  162.9024 C.3     1  UNL1        0.1753
      2 C         141.0927  143.4358  162.1796 C.ar    1  UNL1        0.0089
      3 C         141.2387  143.8873  160.7567 C.ar    1  UNL1       -0.0021
      4 C         140.6192  145.1791  160.3124 C.ar    1  UNL1       -0.0003
      5 C         139.8537  146.0194  161.2912 C.ar    1  UNL1        0.0001
      6 C         139.7077  145.5679  162.7141 C.ar    1  UNL1        0.0043
      7 C         140.3272  144.2761  163.1583 C.ar    1  UNL1        0.0517
      8 C         140.3507  143.5785  164.4860 C.2     1  UNL1        0.2496
      9 O         139.7072  144.0667  165.7500 O.2     1  UNL1       -0.2699
     10 N         141.1307  142.3070  164.3279 N.am    1  UNL1       -0.2620
     11 N         141.7236  139.8655  161.8097 N.am    1  UNL1       -0.3059
     12 C         142.4017  141.1086  162.3047 C.2     1  UNL1        0.2448
     13 O         143.8922  141.2414  162.2020 O.2     1  UNL1       -0.2729
     14 H         140.7453  139.7783  161.8771 H       1  UNL1        0.1494
     15 C         142.6771  138.1287  162.5675 C.3     1  UNL1        0.0196
     16 C         142.5361  138.7553  161.2119 C.3     1  UNL1        0.0569
     17 C         142.3951  139.3819  159.8564 C.3     1  UNL1        0.0196
     18 C         143.3486  137.6451  160.6143 C.3     1  UNL1        0.0196
     19 C         141.4041  141.3005  165.4059 C.3     1  UNL1        0.1212
     20 C         140.2790  140.4906  165.9787 C.ar    1  UNL1       -0.0023
     21 C         139.4038  139.6764  165.0725 C.ar    1  UNL1       -0.0026
     22 C         138.2787  138.8665  165.6453 C.ar    1  UNL1       -0.0003
     23 C         138.0286  138.8709  167.1243 C.ar    1  UNL1       -0.0000
     24 C         138.9036  139.6851  168.0305 C.ar    1  UNL1       -0.0003
     25 C         140.0289  140.4950  167.4577 C.ar    1  UNL1       -0.0024
     26 C         140.9039  141.3092  168.3639 C.ar    1  UNL1       -0.0001
     27 C         142.2777  140.8214  168.7170 C.ar    1  UNL1        0.0023
     28 C         143.1528  141.6357  169.6233 C.ar    1  UNL1        0.0296
     29 C         142.6540  142.9378  170.1764 C.ar    1  UNL1        0.1401
     30 F         143.5291  143.7520  171.0826 F       1  UNL1       -0.2042
     31 C         141.2802  143.4255  169.8233 C.ar    1  UNL1        0.0296
     32 C         140.4052  142.6112  168.9170 C.ar    1  UNL1        0.0023
@<TRIPOS>BOND
     1    15    16    1
     2    16    17    1
     3    16    18    1
     4    16    11    1
     5    11    12   am
     6    12    13    2
     7    12     1    1
     8     1     2    1
     9     2     3   ar
    10     3     4   ar
    11     4     5   ar
    12     5     6   ar
    13     6     7   ar
    14     7     8    1
    15     8     9    2
    16     8    10   am
    17    10    19    1
    18    19    20    1
    19    20    21   ar
    20    21    22   ar
    21    22    23   ar
    22    23    24   ar
    23    24    25   ar
    24    25    26    1
    25    26    27   ar
    26    27    28   ar
    27    28    29   ar
    28    29    30    1
    29    29    31   ar
    30    31    32   ar
    31    10     1    1
    32    25    20   ar
    33    32    26   ar
    34     7     2   ar
    35    11    14    1
@<TRIPOS>MOLECULE
*****
 32 35 0 0 0
SMALL
GASTEIGER

@<TRIPOS>ATOM
      1 C         140.7195  142.1950  163.5209 C.3     1  UNL1        0.1753
      2 C         140.4906  142.8824  162.2075 C.ar    1  UNL1        0.0089
      3 C         139.5169  142.6246  161.0960 C.ar    1  UNL1       -0.0021
      4 C         139.5227  143.4977  159.8763 C.ar    1  UNL1       -0.0003
      5 C         140.5021  144.6286  159.7682 C.ar    1  UNL1        0.0001
      6 C         141.4758  144.8864  160.8797 C.ar    1  UNL1        0.0043
      7 C         141.4700  144.0133  162.0993 C.ar    1  UNL1        0.0517
      8 C         142.3042  144.0249  163.3459 C.2     1  UNL1        0.2496
      9 O         143.4084  144.9907  163.6589 O.2     1  UNL1       -0.2699
     10 N         141.8403  142.9011  164.2245 N.am    1  UNL1       -0.2620
     11 N         140.1794  139.6551  163.4333 N.am    1  UNL1       -0.3059
     12 C         139.9606  141.0097  164.0397 C.2     1  UNL1        0.2448
     13 O         138.9831  141.1787  165.1647 O.2     1  UNL1       -0.2729
     14 H         140.8210  139.5442  162.6949 H       1  UNL1        0.1494
     15 C         140.4709  138.2568  165.0016 C.3     1  UNL1        0.0196
     16 C         139.4206  138.4698  163.9521 C.3     1  UNL1        0.0569
     17 C         138.3703  138.6828  162.9026 C.3     1  UNL1        0.0196
     18 C         138.6618  137.2845  164.4708 C.3     1  UNL1        0.0196
     19 C         142.3992  142.5458  165.5704 C.3     1  UNL1        0.1212
     20 C         142.8775  141.1498  165.8392 C.ar    1  UNL1       -0.0023
     21 C         143.7031  140.4296  164.8147 C.ar    1  UNL1       -0.0026
     22 C         144.1814  139.0335  165.0834 C.ar    1  UNL1       -0.0003
     23 C         143.8341  138.3577  166.3767 C.ar    1  UNL1       -0.0000
     24 C         143.0085  139.0778  167.4012 C.ar    1  UNL1       -0.0003
     25 C         142.5302  140.4740  167.1325 C.ar    1  UNL1       -0.0024
     26 C         141.7046  141.1941  168.1570 C.ar    1  UNL1       -0.0001
     27 C         140.3444  140.6777  168.5221 C.ar    1  UNL1        0.0023
     28 C         139.5188  141.3979  169.5466 C.ar    1  UNL1        0.0296
     29 C         140.0534  142.6346  170.2062 C.ar    1  UNL1        0.1401
     30 F         139.2278  143.3547  171.2307 F       1  UNL1       -0.2042
     31 C         141.4136  143.1510  169.8411 C.ar    1  UNL1        0.0296
     32 C         142.2392  142.4307  168.8165 C.ar    1  UNL1        0.0023
@<TRIPOS>BOND
     1    15    16    1
     2    16    17    1
     3    16    18    1
     4    16    11    1
     5    11    12   am
     6    12    13    2
     7    12     1    1
     8     1     2    1
     9     2     3   ar
    10     3     4   ar
    11     4     5   ar
    12     5     6   ar
    13     6     7   ar
    14     7     8    1
    15     8     9    2
    16     8    10   am
    17    10    19    1
    18    19    20    1
    19    20    21   ar
    20    21    22   ar
    21    22    23   ar
    22    23    24   ar
    23    24    25   ar
    24    25    26    1
    25    26    27   ar
    26    27    28   ar
    27    28    29   ar
    28    29    30    1
    29    29    31   ar
    30    31    32   ar
    31    10     1    1
    32    25    20   ar
    33    32    26   ar
    34     7     2   ar
    35    11    14    1
@<TRIPOS>MOLECULE
*****
 32 35 0 0 0
SMALL
GASTEIGER

@<TRIPOS>ATOM
      1 C         140.9956  141.4564  166.7435 C.3     1  UNL1        0.1753
      2 C         141.0744  141.8834  168.1792 C.ar    1  UNL1        0.0089
      3 C         140.4792  143.0477  168.9142 C.ar    1  UNL1       -0.0021
      4 C         140.7375  143.2196  170.3817 C.ar    1  UNL1       -0.0003
      5 C         141.5910  142.2272  171.1143 C.ar    1  UNL1        0.0001
      6 C         142.1862  141.0629  170.3793 C.ar    1  UNL1        0.0043
      7 C         141.9279  140.8911  168.9118 C.ar    1  UNL1        0.0517
      8 C         142.3766  139.8507  167.9288 C.2     1  UNL1        0.2496
      9 O         143.2485  138.6685  168.2326 O.2     1  UNL1       -0.2699
     10 N         141.8005  140.2001  166.5886 N.am    1  UNL1       -0.2620
     11 N         140.6340  143.5540  165.2536 N.am    1  UNL1       -0.3059
     12 C         140.2440  142.1619  165.6538 C.2     1  UNL1        0.2448
     13 O         139.1024  141.4754  164.9643 O.2     1  UNL1       -0.2729
     14 H         141.3832  144.0046  165.7061 H       1  UNL1        0.1494
     15 C         140.8849  143.7750  163.1588 C.3     1  UNL1        0.0196
     16 C         139.8823  144.2594  164.1639 C.3     1  UNL1        0.0569
     17 C         138.8798  144.7438  165.1691 C.3     1  UNL1        0.0196
     18 C         139.1307  144.9648  163.0743 C.3     1  UNL1        0.0196
     19 C         141.9950  139.4287  165.3170 C.3     1  UNL1        0.1212
     20 C         142.8977  139.9643  164.2455 C.ar    1  UNL1       -0.0023
     21 C         144.2825  140.4247  164.5924 C.ar    1  UNL1       -0.0026
     22 C         145.1853  140.9603  163.5208 C.ar    1  UNL1       -0.0003
     23 C         144.7032  141.0355  162.1024 C.ar    1  UNL1       -0.0000
     24 C         143.3184  140.5751  161.7555 C.ar    1  UNL1       -0.0003
     25 C         142.4156  140.0395  162.8270 C.ar    1  UNL1       -0.0024
     26 C         141.0309  139.5791  162.4801 C.ar    1  UNL1       -0.0001
     27 C         140.6136  138.1687  162.7747 C.ar    1  UNL1        0.0023
     28 C         139.2288  137.7083  162.4277 C.ar    1  UNL1        0.0296
     29 C         138.2612  138.6583  161.7863 C.ar    1  UNL1        0.1401
     30 F         136.8765  138.1979  161.4393 F       1  UNL1       -0.2042
     31 C         138.6785  140.0687  161.4917 C.ar    1  UNL1        0.0296
     32 C         140.0634  140.5290  161.8387 C.ar    1  UNL1        0.0023
@<TRIPOS>BOND
     1    15    16    1
     2    16    17    1
     3    16    18    1
     4    16    11    1
     5    11    12   am
     6    12    13    2
     7    12     1    1
     8     1     2    1
     9     2     3   ar
    10     3     4   ar
    11     4     5   ar
    12     5     6   ar
    13     6     7   ar
    14     7     8    1
    15     8     9    2
    16     8    10   am
    17    10    19    1
    18    19    20    1
    19    20    21   ar
    20    21    22   ar
    21    22    23   ar
    22    23    24   ar
    23    24    25   ar
    24    25    26    1
    25    26    27   ar
    26    27    28   ar
    27    28    29   ar
    28    29    30    1
    29    29    31   ar
    30    31    32   ar
    31    10     1    1
    32    25    20   ar
    33    32    26   ar
    34     7     2   ar
    35    11    14    1
@<TRIPOS>MOLECULE
*****
 32 35 0 0 0
SMALL
GASTEIGER

@<TRIPOS>ATOM
      1 C         140.9840  141.7610  162.4057 C.3     1  UNL1        0.1753
      2 C         140.7090  143.1828  162.0145 C.ar    1  UNL1        0.0089
      3 C         141.1560  144.0058  160.8429 C.ar    1  UNL1       -0.0021
      4 C         140.7106  145.4323  160.7148 C.ar    1  UNL1       -0.0003
      5 C         139.8181  146.0359  161.7585 C.ar    1  UNL1        0.0001
      6 C         139.3711  145.2130  162.9301 C.ar    1  UNL1        0.0043
      7 C         139.8166  143.7864  163.0582 C.ar    1  UNL1        0.0517
      8 C         139.5400  142.7377  164.0943 C.2     1  UNL1        0.2496
      9 O         138.6909  142.9104  165.3188 O.2     1  UNL1       -0.2699
     10 N         140.2614  141.4859  163.6911 N.am    1  UNL1       -0.2620
     11 N         141.2684  139.4551  161.2429 N.am    1  UNL1       -0.3059
     12 C         141.8325  140.7856  161.6450 C.2     1  UNL1        0.2448
     13 O         143.2450  141.1406  161.2864 O.2     1  UNL1       -0.2729
     14 H         140.3413  139.2221  161.4782 H       1  UNL1        0.1494
     15 C         141.5994  139.0378  159.1896 C.3     1  UNL1        0.0196
     16 C         142.1169  138.4797  160.4822 C.3     1  UNL1        0.0569
     17 C         142.6343  137.9217  161.7748 C.3     1  UNL1        0.0196
     18 C         142.9653  137.5044  159.7215 C.3     1  UNL1        0.0196
     19 C         140.2605  140.1871  164.4415 C.3     1  UNL1        0.1212
     20 C         140.3942  140.1840  165.9355 C.ar    1  UNL1       -0.0023
     21 C         139.2079  139.8586  166.7940 C.ar    1  UNL1       -0.0026
     22 C         139.3415  139.8555  168.2880 C.ar    1  UNL1       -0.0003
     23 C         140.6614  140.1778  168.9236 C.ar    1  UNL1       -0.0000
     24 C         141.8477  140.5032  168.0652 C.ar    1  UNL1       -0.0003
     25 C         141.7141  140.5063  166.5711 C.ar    1  UNL1       -0.0024
     26 C         142.9003  140.8317  165.7127 C.ar    1  UNL1       -0.0001
     27 C         143.2584  142.2625  165.4394 C.ar    1  UNL1        0.0023
     28 C         144.4447  142.5879  164.5810 C.ar    1  UNL1        0.0296
     29 C         145.2729  141.4825  163.9959 C.ar    1  UNL1        0.1401
     30 F         146.4591  141.8079  163.1375 F       1  UNL1       -0.2042
     31 C         144.9148  140.0518  164.2693 C.ar    1  UNL1        0.0296
     32 C         143.7285  139.7264  165.1277 C.ar    1  UNL1        0.0023
@<TRIPOS>BOND
     1    15    16    1
     2    16    17    1
     3    16    18    1
     4    16    11    1
     5    11    12   am
     6    12    13    2
     7    12     1    1
     8     1     2    1
     9     2     3   ar
    10     3     4   ar
    11     4     5   ar
    12     5     6   ar
    13     6     7   ar
    14     7     8    1
    15     8     9    2
    16     8    10   am
    17    10    19    1
    18    19    20    1
    19    20    21   ar
    20    21    22   ar
    21    22    23   ar
    22    23    24   ar
    23    24    25   ar
    24    25    26    1
    25    26    27   ar
    26    27    28   ar
    27    28    29   ar
    28    29    30    1
    29    29    31   ar
    30    31    32   ar
    31    10     1    1
    32    25    20   ar
    33    32    26   ar
    34     7     2   ar
    35    11    14    1
