@<TRIPOS>MOLECULE
*****
 29 32 0 0 0
SMALL
GASTEIGER

@<TRIPOS>ATOM
      1 N         141.5533  143.5661  164.6862 N.3     1  UNL1       -0.2726
      2 C         140.9327  144.7997  164.1003 C.3     1  UNL1        0.0613
      3 C         142.0275  145.6257  163.4928 C.3     1  UNL1        0.0175
      4 C         143.3248  144.9026  163.7032 C.3     1  UNL1        0.0175
      5 C         143.0317  143.6298  164.4408 C.3     1  UNL1        0.0613
      6 C         142.4500  142.4439  165.1718 C.3     1  UNL1        0.0595
      7 C         140.9616  142.5184  165.3432 C.3     1  UNL1        0.1686
      8 C         140.2030  143.6963  164.8074 C.3     1  UNL1        0.0595
      9 C         140.8236  142.4627  165.3933 C.3     1  UNL1        0.0816
     10 C         140.7265  142.4666  166.8901 C.3     1  UNL1        0.0223
     11 C         138.2933  138.0335  162.2342 C.3     1  UNL1        0.0521
     12 C         138.9259  139.1408  163.0239 C.ar    1  UNL1        0.0594
     13 C         138.0905  139.9722  163.9517 C.ar    1  UNL1        0.0145
     14 C         138.7230  141.0796  164.7415 C.ar    1  UNL1       -0.0002
     15 C         140.1910  141.3554  164.6035 C.ar    1  UNL1        0.0114
     16 C         141.0264  140.5239  163.6757 C.ar    1  UNL1        0.0954
     17 N         140.3939  139.4166  162.8859 N.ar    1  UNL1       -0.2484
     18 O         140.2319  141.4149  166.0503 O.3     1  UNL1       -0.4791
     19 C         140.8828  140.6999  167.1971 C.ar    1  UNL1        0.1385
     20 C         142.1258  139.8919  166.9689 C.ar    1  UNL1        0.0369
     21 C         142.7767  139.1769  168.1156 C.ar    1  UNL1        0.0033
     22 C         142.1846  139.2699  169.4906 C.ar    1  UNL1        0.0047
     23 C         140.9416  140.0778  169.7189 C.ar    1  UNL1        0.0561
     24 C         140.2907  140.7929  168.5721 C.ar    1  UNL1        0.0414
     25 C         140.3495  140.1708  171.0939 C.2     1  UNL1        0.2428
     26 N         139.5544  139.0255  171.6472 N.am    1  UNL1       -0.3253
     27 O         140.5525  141.4092  171.9158 O.2     1  UNL1       -0.2704
     28 H         139.4212  138.2127  171.1078 H       1  UNL1        0.1453
     29 H         139.1658  139.0865  172.5497 H       1  UNL1        0.1453
@<TRIPOS>BOND
     1    11    12    1
     2    12    13   ar
     3    13    14   ar
     4    14    15   ar
     5    15     9    1
     6     9    10    1
     7     9     1    1
     8     1     2    1
     9     2     3    1
    10     3     4    1
    11     5     4    1
    12     5     6    1
    13     6     7    1
    14     7    18    1
    15    18    19    1
    16    19    20   ar
    17    20    21   ar
    18    21    22   ar
    19    22    23   ar
    20    23    25    1
    21    25    26   am
    22    25    27    2
    23    23    24   ar
    24     7     8    1
    25    15    16   ar
    26    16    17   ar
    27    17    12   ar
    28     5     1    1
    29    24    19   ar
    30     8     2    1
    31    26    28    1
    32    26    29    1
@<TRIPOS>MOLECULE
*****
 29 32 0 0 0
SMALL
GASTEIGER

@<TRIPOS>ATOM
      1 N         140.4372  143.3711  163.8158 N.3     1  UNL1       -0.2726
      2 C         140.6864  143.3636  162.3367 C.3     1  UNL1        0.0613
      3 C         139.9225  144.5042  161.7321 C.3     1  UNL1        0.0175
      4 C         139.2012  145.2166  162.8376 C.3     1  UNL1        0.0175
      5 C         139.5193  144.5163  164.1254 C.3     1  UNL1        0.0613
      6 C         140.0059  143.6298  165.2463 C.3     1  UNL1        0.0595
      7 C         140.9149  142.5288  164.7863 C.3     1  UNL1        0.1686
      8 C         141.2552  142.3957  163.3315 C.3     1  UNL1        0.0595
      9 C         141.0060  142.4032  164.8107 C.3     1  UNL1        0.0816
     10 C         142.2685  142.7400  165.5473 C.3     1  UNL1        0.0223
     11 C         138.2311  137.1846  165.8434 C.3     1  UNL1        0.0521
     12 C         138.9248  138.4893  165.5852 C.ar    1  UNL1        0.0594
     13 C         138.1546  139.7745  165.6531 C.ar    1  UNL1        0.0145
     14 C         138.8482  141.0792  165.3949 C.ar    1  UNL1       -0.0002
     15 C         140.3123  141.0986  165.0689 C.ar    1  UNL1        0.0114
     16 C         141.0826  139.8133  165.0010 C.ar    1  UNL1        0.0954
     17 N         140.3889  138.5086  165.2592 N.ar    1  UNL1       -0.2484
     18 O         141.4838  141.5609  165.7813 O.3     1  UNL1       -0.4791
     19 C         141.8229  142.0229  167.1675 C.ar    1  UNL1        0.1385
     20 C         143.2363  141.9362  167.6622 C.ar    1  UNL1        0.0369
     21 C         143.5754  142.3981  169.0483 C.ar    1  UNL1        0.0033
     22 C         142.5011  142.9467  169.9399 C.ar    1  UNL1        0.0047
     23 C         141.0877  143.0334  169.4452 C.ar    1  UNL1        0.0561
     24 C         140.7486  142.5715  168.0590 C.ar    1  UNL1        0.0414
     25 C         140.0134  143.5821  170.3368 C.2     1  UNL1        0.2428
     26 N         139.7976  145.0638  170.4268 N.am    1  UNL1       -0.3253
     27 O         139.1549  142.6490  171.1383 O.2     1  UNL1       -0.2704
     28 H         140.3611  145.6761  169.9007 H       1  UNL1        0.1453
     29 H         139.0925  145.4238  171.0120 H       1  UNL1        0.1453
@<TRIPOS>BOND
     1    11    12    1
     2    12    13   ar
     3    13    14   ar
     4    14    15   ar
     5    15     9    1
     6     9    10    1
     7     9     1    1
     8     1     2    1
     9     2     3    1
    10     3     4    1
    11     5     4    1
    12     5     6    1
    13     6     7    1
    14     7    18    1
    15    18    19    1
    16    19    20   ar
    17    20    21   ar
    18    21    22   ar
    19    22    23   ar
    20    23    25    1
    21    25    26   am
    22    25    27    2
    23    23    24   ar
    24     7     8    1
    25    15    16   ar
    26    16    17   ar
    27    17    12   ar
    28     5     1    1
    29    24    19   ar
    30     8     2    1
    31    26    28    1
    32    26    29    1
@<TRIPOS>MOLECULE
*****
 29 32 0 0 0
SMALL
GASTEIGER

@<TRIPOS>ATOM
      1 N         139.6614  139.5798  164.1834 N.3     1  UNL1       -0.2726
      2 C         138.4332  138.9333  163.6145 C.3     1  UNL1        0.0613
      3 C         138.8534  137.6736  162.9168 C.3     1  UNL1        0.0175
      4 C         140.3412  137.5417  163.0545 C.3     1  UNL1        0.0175
      5 C         140.8406  138.7198  163.8373 C.3     1  UNL1        0.0613
      6 C         141.0518  139.9863  164.6313 C.3     1  UNL1        0.0595
      7 C         139.7841  140.7414  164.9012 C.3     1  UNL1        0.1686
      8 C         138.4748  140.2148  164.3928 C.3     1  UNL1        0.0595
      9 C         139.7029  140.8614  164.9617 C.3     1  UNL1        0.0816
     10 C         139.6775  140.8295  166.4612 C.3     1  UNL1        0.0223
     11 C         139.9711  146.1157  162.0771 C.3     1  UNL1        0.0521
     12 C         139.9040  144.8022  162.7983 C.ar    1  UNL1        0.0594
     13 C         138.8141  144.5499  163.7974 C.ar    1  UNL1        0.0145
     14 C         138.7470  143.2363  164.5186 C.ar    1  UNL1       -0.0002
     15 C         139.7700  142.1750  164.2406 C.ar    1  UNL1        0.0114
     16 C         140.8600  142.4273  163.2414 C.ar    1  UNL1        0.0954
     17 N         140.9270  143.7408  162.5203 N.ar    1  UNL1       -0.2484
     18 O         139.8257  142.0230  165.6796 O.3     1  UNL1       -0.4791
     19 C         140.7901  142.1781  166.8180 C.ar    1  UNL1        0.1385
     20 C         142.2662  142.2029  166.5524 C.ar    1  UNL1        0.0369
     21 C         143.2305  142.3580  167.6908 C.ar    1  UNL1        0.0033
     22 C         142.7188  142.4883  169.0948 C.ar    1  UNL1        0.0047
     23 C         141.2427  142.4635  169.3603 C.ar    1  UNL1        0.0561
     24 C         140.2783  142.3084  168.2219 C.ar    1  UNL1        0.0414
     25 C         140.7310  142.5938  170.7643 C.2     1  UNL1        0.2428
     26 N         139.4052  143.2463  171.0218 N.am    1  UNL1       -0.3253
     27 O         141.5452  142.0715  171.9108 O.2     1  UNL1       -0.2704
     28 H         138.8708  143.5891  170.2694 H       1  UNL1        0.1453
     29 H         139.0693  143.3318  171.9433 H       1  UNL1        0.1453
@<TRIPOS>BOND
     1    11    12    1
     2    12    13   ar
     3    13    14   ar
     4    14    15   ar
     5    15     9    1
     6     9    10    1
     7     9     1    1
     8     1     2    1
     9     2     3    1
    10     3     4    1
    11     5     4    1
    12     5     6    1
    13     6     7    1
    14     7    18    1
    15    18    19    1
    16    19    20   ar
    17    20    21   ar
    18    21    22   ar
    19    22    23   ar
    20    23    25    1
    21    25    26   am
    22    25    27    2
    23    23    24   ar
    24     7     8    1
    25    15    16   ar
    26    16    17   ar
    27    17    12   ar
    28     5     1    1
    29    24    19   ar
    30     8     2    1
    31    26    28    1
    32    26    29    1
@<TRIPOS>MOLECULE
*****
 29 32 0 0 0
SMALL
GASTEIGER

@<TRIPOS>ATOM
      1 N         143.7281  141.6296  164.9415 N.3     1  UNL1       -0.2726
      2 C         144.8642  142.4336  164.3823 C.3     1  UNL1        0.0613
      3 C         145.9195  141.4783  163.9091 C.3     1  UNL1        0.0175
      4 C         145.4355  140.0838  164.1759 C.3     1  UNL1        0.0175
      5 C         144.0811  140.1773  164.8139 C.3     1  UNL1        0.0613
      6 C         142.7592  140.5697  165.4285 C.3     1  UNL1        0.0595
      7 C         142.5450  142.0531  165.4895 C.3     1  UNL1        0.1686
      8 C         143.5975  142.9850  164.9664 C.3     1  UNL1        0.0595
      9 C         142.4613  142.1810  165.5256 C.3     1  UNL1        0.0816
     10 C         142.3636  142.4337  167.0010 C.3     1  UNL1        0.0223
     11 C         137.7853  143.3757  161.9609 C.3     1  UNL1        0.0521
     12 C         138.9543  143.0770  162.8520 C.ar    1  UNL1        0.0594
     13 C         139.5787  141.7133  162.8382 C.ar    1  UNL1        0.0145
     14 C         140.7477  141.4146  163.7294 C.ar    1  UNL1       -0.0002
     15 C         141.2923  142.4797  164.6345 C.ar    1  UNL1        0.0114
     16 C         140.6679  143.8435  164.6483 C.ar    1  UNL1        0.0954
     17 N         139.4989  144.1422  163.7571 N.ar    1  UNL1       -0.2484
     18 O         141.2781  142.6045  166.0737 O.3     1  UNL1       -0.4791
     19 C         140.6209  141.9101  167.2296 C.ar    1  UNL1        0.1385
     20 C         139.9860  140.5653  167.0340 C.ar    1  UNL1        0.0369
     21 C         139.3288  139.8710  168.1898 C.ar    1  UNL1        0.0033
     22 C         139.3064  140.5215  169.5412 C.ar    1  UNL1        0.0047
     23 C         139.9414  141.8664  169.7368 C.ar    1  UNL1        0.0561
     24 C         140.5986  142.5607  168.5809 C.ar    1  UNL1        0.0414
     25 C         139.9190  142.5169  171.0882 C.2     1  UNL1        0.2428
     26 N         138.8834  143.5551  171.4038 N.am    1  UNL1       -0.3253
     27 O         140.9324  142.1292  172.1241 O.2     1  UNL1       -0.2704
     28 H         138.2183  143.8095  170.7240 H       1  UNL1        0.1453
     29 H         138.8687  143.9820  172.2908 H       1  UNL1        0.1453
@<TRIPOS>BOND
     1    11    12    1
     2    12    13   ar
     3    13    14   ar
     4    14    15   ar
     5    15     9    1
     6     9    10    1
     7     9     1    1
     8     1     2    1
     9     2     3    1
    10     3     4    1
    11     5     4    1
    12     5     6    1
    13     6     7    1
    14     7    18    1
    15    18    19    1
    16    19    20   ar
    17    20    21   ar
    18    21    22   ar
    19    22    23   ar
    20    23    25    1
    21    25    26   am
    22    25    27    2
    23    23    24   ar
    24     7     8    1
    25    15    16   ar
    26    16    17   ar
    27    17    12   ar
    28     5     1    1
    29    24    19   ar
    30     8     2    1
    31    26    28    1
    32    26    29    1
@<TRIPOS>MOLECULE
*****
 29 32 0 0 0
SMALL
GASTEIGER

@<TRIPOS>ATOM
      1 N         141.7336  142.3478  168.4056 N.3     1  UNL1       -0.2726
      2 C         141.4531  143.1946  169.6115 C.3     1  UNL1        0.0613
      3 C         142.6912  143.2204  170.4580 C.3     1  UNL1        0.0175
      4 C         143.7368  142.3896  169.7752 C.3     1  UNL1        0.0175
      5 C         143.1450  141.8503  168.5067 C.3     1  UNL1        0.0613
      6 C         142.3022  141.4585  167.3170 C.3     1  UNL1        0.0595
      7 C         140.9156  142.0295  167.3525 C.3     1  UNL1        0.1686
      8 C         140.4910  142.8976  168.4997 C.3     1  UNL1        0.0595
      9 C         140.7715  142.0508  167.2937 C.3     1  UNL1        0.0816
     10 C         139.8908  140.8388  167.3678 C.3     1  UNL1        0.0223
     11 C         140.4461  145.7106  162.5503 C.3     1  UNL1        0.0521
     12 C         140.5275  144.7957  163.7362 C.ar    1  UNL1        0.0594
     13 C         139.3327  144.6105  164.6238 C.ar    1  UNL1        0.0145
     14 C         139.4140  143.6955  165.8097 C.ar    1  UNL1       -0.0002
     15 C         140.6902  142.9657  166.1079 C.ar    1  UNL1        0.0114
     16 C         141.8850  143.1509  165.2202 C.ar    1  UNL1        0.0954
     17 N         141.8037  144.0659  164.0343 N.ar    1  UNL1       -0.2484
     18 O         139.9535  141.7324  166.2405 O.3     1  UNL1       -0.4791
     19 C         139.9413  140.3752  165.6019 C.ar    1  UNL1        0.1385
     20 C         138.7891  139.4447  165.8398 C.ar    1  UNL1        0.0369
     21 C         138.7770  138.0876  165.2012 C.ar    1  UNL1        0.0033
     22 C         139.9170  137.6608  164.3247 C.ar    1  UNL1        0.0047
     23 C         141.0692  138.5913  164.0869 C.ar    1  UNL1        0.0561
     24 C         141.0814  139.9485  164.7255 C.ar    1  UNL1        0.0414
     25 C         142.2092  138.1646  163.2104 C.2     1  UNL1        0.2428
     26 N         141.9513  137.2992  162.0126 N.am    1  UNL1       -0.3253
     27 O         143.6073  138.6033  163.5316 O.2     1  UNL1       -0.2704
     28 H         141.0338  137.0113  161.8018 H       1  UNL1        0.1453
     29 H         142.6995  137.0191  161.4374 H       1  UNL1        0.1453
@<TRIPOS>BOND
     1    11    12    1
     2    12    13   ar
     3    13    14   ar
     4    14    15   ar
     5    15     9    1
     6     9    10    1
     7     9     1    1
     8     1     2    1
     9     2     3    1
    10     3     4    1
    11     5     4    1
    12     5     6    1
    13     6     7    1
    14     7    18    1
    15    18    19    1
    16    19    20   ar
    17    20    21   ar
    18    21    22   ar
    19    22    23   ar
    20    23    25    1
    21    25    26   am
    22    25    27    2
    23    23    24   ar
    24     7     8    1
    25    15    16   ar
    26    16    17   ar
    27    17    12   ar
    28     5     1    1
    29    24    19   ar
    30     8     2    1
    31    26    28    1
    32    26    29    1
@<TRIPOS>MOLECULE
*****
 29 32 0 0 0
SMALL
GASTEIGER

@<TRIPOS>ATOM
      1 N         143.8904  140.7576  165.0341 N.3     1  UNL1       -0.2726
      2 C         145.0924  140.3628  164.2284 C.3     1  UNL1        0.0613
      3 C         145.8222  141.6146  163.8407 C.3     1  UNL1        0.0175
      4 C         145.0712  142.7831  164.4068 C.3     1  UNL1        0.0175
      5 C         143.8773  142.2535  165.1444 C.3     1  UNL1        0.0613
      6 C         142.7803  141.4502  165.8005 C.3     1  UNL1        0.0595
      7 C         142.9250  139.9699  165.6060 C.3     1  UNL1        0.1686
      8 C         144.0811  139.4262  164.8200 C.3     1  UNL1        0.0595
      9 C         142.8791  139.8210  165.6257 C.3     1  UNL1        0.0816
     10 C         143.0239  139.3605  167.0459 C.3     1  UNL1        0.0223
     11 C         138.2544  137.9168  162.3111 C.3     1  UNL1        0.0521
     12 C         139.4105  138.3928  163.1398 C.ar    1  UNL1        0.0594
     13 C         140.3144  137.3991  163.8071 C.ar    1  UNL1        0.0145
     14 C         141.4706  137.8751  164.6358 C.ar    1  UNL1       -0.0002
     15 C         141.7229  139.3450  164.7971 C.ar    1  UNL1        0.0114
     16 C         140.8190  140.3387  164.1297 C.ar    1  UNL1        0.0954
     17 N         139.6628  139.8627  163.3010 N.ar    1  UNL1       -0.2484
     18 O         141.9136  139.0333  166.1976 O.3     1  UNL1       -0.4791
     19 C         141.0400  139.4897  167.3283 C.ar    1  UNL1        0.1385
     20 C         139.5477  139.4685  167.1789 C.ar    1  UNL1        0.0369
     21 C         138.6741  139.9249  168.3095 C.ar    1  UNL1        0.0033
     22 C         139.2929  140.4026  169.5897 C.ar    1  UNL1        0.0047
     23 C         140.7852  140.4238  169.7392 C.ar    1  UNL1        0.0561
     24 C         141.6588  139.9674  168.6085 C.ar    1  UNL1        0.0414
     25 C         141.4040  140.9015  171.0194 C.2     1  UNL1        0.2428
     26 N         142.7173  140.3370  171.4741 N.am    1  UNL1       -0.3253
     27 O         140.7095  141.9437  171.8450 O.2     1  UNL1       -0.2704
     28 H         143.1731  139.6530  170.9323 H       1  UNL1        0.1453
     29 H         143.1234  140.6505  172.3144 H       1  UNL1        0.1453
@<TRIPOS>BOND
     1    11    12    1
     2    12    13   ar
     3    13    14   ar
     4    14    15   ar
     5    15     9    1
     6     9    10    1
     7     9     1    1
     8     1     2    1
     9     2     3    1
    10     3     4    1
    11     5     4    1
    12     5     6    1
    13     6     7    1
    14     7    18    1
    15    18    19    1
    16    19    20   ar
    17    20    21   ar
    18    21    22   ar
    19    22    23   ar
    20    23    25    1
    21    25    26   am
    22    25    27    2
    23    23    24   ar
    24     7     8    1
    25    15    16   ar
    26    16    17   ar
    27    17    12   ar
    28     5     1    1
    29    24    19   ar
    30     8     2    1
    31    26    28    1
    32    26    29    1
@<TRIPOS>MOLECULE
*****
 29 32 0 0 0
SMALL
GASTEIGER

@<TRIPOS>ATOM
      1 N         140.2331  139.4674  165.4851 N.3     1  UNL1       -0.2726
      2 C         140.6081  138.3702  164.5335 C.3     1  UNL1        0.0613
      3 C         139.5111  137.3472  164.5499 C.3     1  UNL1        0.0175
      4 C         138.4582  137.8123  165.5116 C.3     1  UNL1        0.0175
      5 C         138.9043  139.1226  166.0896 C.3     1  UNL1        0.0613
      6 C         139.5956  140.4022  166.4945 C.3     1  UNL1        0.0595
      7 C         140.9132  140.6128  165.8092 C.3     1  UNL1        0.1686
      8 C         141.4194  139.5968  164.8287 C.3     1  UNL1        0.0595
      9 C         141.0444  140.6940  165.7803 C.3     1  UNL1        0.0816
     10 C         142.0541  140.6764  166.8895 C.3     1  UNL1        0.0223
     11 C         140.2509  145.6709  162.5244 C.3     1  UNL1        0.0521
     12 C         140.4493  144.4267  163.3384 C.ar    1  UNL1        0.0594
     13 C         139.3523  143.9341  164.2349 C.ar    1  UNL1        0.0145
     14 C         139.5506  142.6899  165.0489 C.ar    1  UNL1       -0.0002
     15 C         140.8461  141.9382  164.9663 C.ar    1  UNL1        0.0114
     16 C         141.9431  142.4307  164.0698 C.ar    1  UNL1        0.0954
     17 N         141.7448  143.6750  163.2558 N.ar    1  UNL1       -0.2484
     18 O         141.7245  141.8395  166.1045 O.3     1  UNL1       -0.4791
     19 C         141.9568  142.2610  167.5252 C.ar    1  UNL1        0.1385
     20 C         143.2974  142.0444  168.1621 C.ar    1  UNL1        0.0369
     21 C         143.5297  142.4659  169.5828 C.ar    1  UNL1        0.0033
     22 C         142.4213  143.1041  170.3665 C.ar    1  UNL1        0.0047
     23 C         141.0807  143.3207  169.7295 C.ar    1  UNL1        0.0561
     24 C         140.8484  142.8991  168.3088 C.ar    1  UNL1        0.0414
     25 C         139.9723  143.9588  170.5133 C.2     1  UNL1        0.2428
     26 N         139.0488  143.1089  171.3347 N.am    1  UNL1       -0.3253
     27 O         139.7874  145.4470  170.4756 O.2     1  UNL1       -0.2704
     28 H         139.1701  142.1322  171.3595 H       1  UNL1        0.1453
     29 H         138.3213  143.5278  171.8491 H       1  UNL1        0.1453
@<TRIPOS>BOND
     1    11    12    1
     2    12    13   ar
     3    13    14   ar
     4    14    15   ar
     5    15     9    1
     6     9    10    1
     7     9     1    1
     8     1     2    1
     9     2     3    1
    10     3     4    1
    11     5     4    1
    12     5     6    1
    13     6     7    1
    14     7    18    1
    15    18    19    1
    16    19    20   ar
    17    20    21   ar
    18    21    22   ar
    19    22    23   ar
    20    23    25    1
    21    25    26   am
    22    25    27    2
    23    23    24   ar
    24     7     8    1
    25    15    16   ar
    26    16    17   ar
    27    17    12   ar
    28     5     1    1
    29    24    19   ar
    30     8     2    1
    31    26    28    1
    32    26    29    1
@<TRIPOS>MOLECULE
*****
 29 32 0 0 0
SMALL
GASTEIGER

@<TRIPOS>ATOM
      1 N         139.2019  139.7218  163.7261 N.3     1  UNL1       -0.2726
      2 C         137.9771  140.0162  162.9118 C.3     1  UNL1        0.0613
      3 C         137.8114  138.9136  161.9084 C.3     1  UNL1        0.0175
      4 C         138.9339  137.9378  162.1026 C.3     1  UNL1        0.0175
      5 C         139.7933  138.4372  163.2260 C.3     1  UNL1        0.0613
      6 C         140.4601  139.1682  164.3662 C.3     1  UNL1        0.0595
      7 C         139.7574  140.4345  164.7571 C.3     1  UNL1        0.1686
      8 C         138.5159  140.8585  164.0299 C.3     1  UNL1        0.0595
      9 C         139.7408  140.5641  164.8442 C.3     1  UNL1        0.0816
     10 C         139.3522  140.2662  166.2621 C.3     1  UNL1        0.0223
     11 C         143.4505  145.1248  163.6453 C.3     1  UNL1        0.0521
     12 C         142.5231  143.9847  163.9450 C.ar    1  UNL1        0.0594
     13 C         141.1895  144.2493  164.5785 C.ar    1  UNL1        0.0145
     14 C         140.2620  143.1092  164.8783 C.ar    1  UNL1       -0.0002
     15 C         140.6682  141.7043  164.5445 C.ar    1  UNL1        0.0114
     16 C         142.0019  141.4396  163.9110 C.ar    1  UNL1        0.0954
     17 N         142.9293  142.5798  163.6112 N.ar    1  UNL1       -0.2484
     18 O         140.2963  141.2768  165.8753 O.3     1  UNL1       -0.4791
     19 C         140.9432  140.6244  167.0611 C.ar    1  UNL1        0.1385
     20 C         142.2101  139.8403  166.8874 C.ar    1  UNL1        0.0369
     21 C         142.8569  139.1880  168.0731 C.ar    1  UNL1        0.0033
     22 C         142.2369  139.3197  169.4325 C.ar    1  UNL1        0.0047
     23 C         140.9700  140.1038  169.6063 C.ar    1  UNL1        0.0561
     24 C         140.3231  140.7562  168.4205 C.ar    1  UNL1        0.0414
     25 C         140.3500  140.2355  170.9657 C.2     1  UNL1        0.2428
     26 N         139.6045  139.0802  171.5652 N.am    1  UNL1       -0.3253
     27 O         140.4755  141.5227  171.7258 O.2     1  UNL1       -0.2704
     28 H         139.5221  138.2354  171.0664 H       1  UNL1        0.1453
     29 H         139.1975  139.1666  172.4575 H       1  UNL1        0.1453
@<TRIPOS>BOND
     1    11    12    1
     2    12    13   ar
     3    13    14   ar
     4    14    15   ar
     5    15     9    1
     6     9    10    1
     7     9     1    1
     8     1     2    1
     9     2     3    1
    10     3     4    1
    11     5     4    1
    12     5     6    1
    13     6     7    1
    14     7    18    1
    15    18    19    1
    16    19    20   ar
    17    20    21   ar
    18    21    22   ar
    19    22    23   ar
    20    23    25    1
    21    25    26   am
    22    25    27    2
    23    23    24   ar
    24     7     8    1
    25    15    16   ar
    26    16    17   ar
    27    17    12   ar
    28     5     1    1
    29    24    19   ar
    30     8     2    1
    31    26    28    1
    32    26    29    1
@<TRIPOS>MOLECULE
*****
 29 32 0 0 0
SMALL
GASTEIGER

@<TRIPOS>ATOM
      1 N         140.5684  141.2914  168.2023 N.3     1  UNL1       -0.2726
      2 C         140.7374  140.1853  169.2012 C.3     1  UNL1        0.0613
      3 C         140.6572  140.7842  170.5741 C.3     1  UNL1        0.0175
      4 C         140.4385  142.2605  170.4237 C.3     1  UNL1        0.0175
      5 C         140.3836  142.5740  168.9578 C.3     1  UNL1        0.0613
      6 C         140.3720  142.5922  167.4483 C.3     1  UNL1        0.0595
      7 C         140.5681  141.2386  166.8324 C.3     1  UNL1        0.1686
      8 C         140.7508  140.0351  167.7088 C.3     1  UNL1        0.0595
      9 C         140.5817  141.1413  166.7099 C.3     1  UNL1        0.0816
     10 C         139.3016  140.8885  165.9701 C.3     1  UNL1        0.0223
     11 C         145.7557  141.5521  163.6997 C.3     1  UNL1        0.0521
     12 C         144.4622  141.4494  164.4522 C.ar    1  UNL1        0.0594
     13 C         144.0582  142.5383  165.4014 C.ar    1  UNL1        0.0145
     14 C         142.7648  142.4357  166.1540 C.ar    1  UNL1       -0.0002
     15 C         141.8752  141.2440  165.9574 C.ar    1  UNL1        0.0114
     16 C         142.2792  140.1550  165.0082 C.ar    1  UNL1        0.0954
     17 N         143.5726  140.2576  164.2557 N.ar    1  UNL1       -0.2484
     18 O         140.5814  141.0886  165.3399 O.3     1  UNL1       -0.4791
     19 C         139.7057  141.9614  164.4905 C.ar    1  UNL1        0.1385
     20 C         138.3069  141.5292  164.1640 C.ar    1  UNL1        0.0369
     21 C         137.4313  142.4019  163.3147 C.ar    1  UNL1        0.0033
     22 C         137.9544  143.7069  162.7918 C.ar    1  UNL1        0.0047
     23 C         139.3531  144.1391  163.1184 C.ar    1  UNL1        0.0561
     24 C         140.2288  143.2663  163.9677 C.ar    1  UNL1        0.0414
     25 C         139.8762  145.4441  162.5955 C.2     1  UNL1        0.2428
     26 N         141.1622  146.0039  163.1275 N.am    1  UNL1       -0.3253
     27 O         139.1133  146.1893  161.5406 O.2     1  UNL1       -0.2704
     28 H         141.6629  145.5148  163.8198 H       1  UNL1        0.1453
     29 H         141.5055  146.8604  162.7843 H       1  UNL1        0.1453
@<TRIPOS>BOND
     1    11    12    1
     2    12    13   ar
     3    13    14   ar
     4    14    15   ar
     5    15     9    1
     6     9    10    1
     7     9     1    1
     8     1     2    1
     9     2     3    1
    10     3     4    1
    11     5     4    1
    12     5     6    1
    13     6     7    1
    14     7    18    1
    15    18    19    1
    16    19    20   ar
    17    20    21   ar
    18    21    22   ar
    19    22    23   ar
    20    23    25    1
    21    25    26   am
    22    25    27    2
    23    23    24   ar
    24     7     8    1
    25    15    16   ar
    26    16    17   ar
    27    17    12   ar
    28     5     1    1
    29    24    19   ar
    30     8     2    1
    31    26    28    1
    32    26    29    1
