@<TRIPOS>MOLECULE
*****
 28 31 0 0 0
SMALL
GASTEIGER

@<TRIPOS>ATOM
      1 C         139.2428  138.2015  164.6486 C.ar    1  UNL1        0.0784
      2 C         138.3833  137.4636  165.6317 C.ar    1  UNL1        0.1070
      3 N         138.1504  138.0329  166.9997 N.ar    1  UNL1       -0.2100
      4 C         138.7771  139.3403  167.3847 C.ar    1  UNL1        0.2252
      5 C         139.6366  140.0782  166.4015 C.ar    1  UNL1        0.0598
      6 C         140.3807  141.3772  166.4958 C.ar    1  UNL1        0.0116
      7 C         141.0735  141.6107  165.1860 C.ar    1  UNL1        0.0296
      8 S         140.7575  140.4559  164.2822 S.2     1  UNL1       -0.0866
      9 C         139.8695  139.5088  165.0335 C.ar    1  UNL1        0.0398
     10 C         141.9315  142.7915  164.8406 C.ar    1  UNL1        0.0060
     11 C         141.3215  143.9969  164.1888 C.ar    1  UNL1        0.0005
     12 C         142.1796  145.1777  163.8435 C.ar    1  UNL1        0.0000
     13 C         143.6478  145.1532  164.1498 C.ar    1  UNL1        0.0000
     14 C         144.2579  143.9478  164.8016 C.ar    1  UNL1        0.0000
     15 C         143.3997  142.7670  165.1469 C.ar    1  UNL1        0.0005
     16 N         138.3833  137.6769  162.2535 N.am    1  UNL1       -0.3253
     17 C         139.4757  137.6321  163.2805 C.2     1  UNL1        0.2448
     18 O         140.8011  137.0178  162.9394 O.2     1  UNL1       -0.2703
     19 H         138.5362  137.3032  161.3556 H       1  UNL1        0.1453
     20 H         137.5135  138.0801  162.4774 H       1  UNL1        0.1453
     21 O         138.5441  139.9096  168.7528 O.3     1  UNL1       -0.4625
     22 C         139.6971  140.4465  169.5480 C.3     1  UNL1        0.1832
     23 C         139.6680  141.8594  170.0509 C.3     1  UNL1        0.0465
     24 C         140.8209  142.3963  170.8461 C.3     1  UNL1        0.0208
     25 C         142.0029  141.5203  171.1385 C.3     1  UNL1        0.0688
     26 N         142.0320  140.1074  170.6356 N.3     1  UNL1       -0.2945
     27 C         140.8791  139.5705  169.8404 C.3     1  UNL1        0.1127
     28 H         142.1312  139.5058  171.4533 H       1  UNL1        0.1234
@<TRIPOS>BOND
     1    16    17   am
     2    17    18    2
     3    17     1    1
     4     1     2   ar
     5     2     3   ar
     6     3     4   ar
     7     4    21    1
     8    22    21    1
     9    22    23    1
    10    23    24    1
    11    24    25    1
    12    25    26    1
    13    26    27    1
    14     4     5   ar
    15     5     6   ar
    16     6     7   ar
    17     7    10    1
    18    10    11   ar
    19    11    12   ar
    20    12    13   ar
    21    13    14   ar
    22    14    15   ar
    23     7     8   ar
    24     8     9   ar
    25     9     1   ar
    26    27    22    1
    27     9     5   ar
    28    15    10   ar
    29    16    19    1
    30    16    20    1
    31    26    28    1
@<TRIPOS>MOLECULE
*****
 28 31 0 0 0
SMALL
GASTEIGER

@<TRIPOS>ATOM
      1 C         139.6919  141.0064  169.4428 C.ar    1  UNL1        0.0784
      2 C         138.6978  139.8975  169.6219 C.ar    1  UNL1        0.1070
      3 N         138.1496  139.1809  168.4236 N.ar    1  UNL1       -0.2100
      4 C         138.5955  139.5733  167.0461 C.ar    1  UNL1        0.2252
      5 C         139.5895  140.6822  166.8671 C.ar    1  UNL1        0.0598
      6 C         140.2108  141.2850  165.6421 C.ar    1  UNL1        0.0116
      7 C         141.1430  142.3742  166.0834 C.ar    1  UNL1        0.0296
      8 S         141.0979  142.4445  167.5810 S.2     1  UNL1       -0.0866
      9 C         140.1378  141.3987  168.0654 C.ar    1  UNL1        0.0398
     10 C         141.9743  143.2410  165.1847 C.ar    1  UNL1        0.0060
     11 C         143.4611  143.0513  165.1253 C.ar    1  UNL1        0.0005
     12 C         144.2924  143.9181  164.2266 C.ar    1  UNL1        0.0000
     13 C         143.6370  144.9746  163.3874 C.ar    1  UNL1        0.0000
     14 C         142.1503  145.1643  163.4468 C.ar    1  UNL1        0.0000
     15 C         141.3190  144.2975  164.3455 C.ar    1  UNL1        0.0005
     16 N         139.6520  143.0366  171.0635 N.am    1  UNL1       -0.3253
     17 C         140.2401  141.7229  170.6412 C.2     1  UNL1        0.2448
     18 O         141.3765  141.1257  171.4172 O.2     1  UNL1       -0.2703
     19 H         140.0119  143.5069  171.8500 H       1  UNL1        0.1453
     20 H         138.9062  143.4285  170.5542 H       1  UNL1        0.1453
     21 O         138.0472  138.8566  165.8478 O.3     1  UNL1       -0.4625
     22 C         138.9683  138.4258  164.7452 C.3     1  UNL1        0.1832
     23 C         140.1662  137.5785  165.0568 C.3     1  UNL1        0.0465
     24 C         141.0874  137.1477  163.9542 C.3     1  UNL1        0.0208
     25 C         140.8107  137.5640  162.5400 C.3     1  UNL1        0.0688
     26 N         139.6127  138.4113  162.2284 N.3     1  UNL1       -0.2945
     27 C         138.6915  138.8422  163.3310 C.3     1  UNL1        0.1127
     28 H         139.0474  137.8876  161.5602 H       1  UNL1        0.1234
@<TRIPOS>BOND
     1    16    17   am
     2    17    18    2
     3    17     1    1
     4     1     2   ar
     5     2     3   ar
     6     3     4   ar
     7     4    21    1
     8    22    21    1
     9    22    23    1
    10    23    24    1
    11    24    25    1
    12    25    26    1
    13    26    27    1
    14     4     5   ar
    15     5     6   ar
    16     6     7   ar
    17     7    10    1
    18    10    11   ar
    19    11    12   ar
    20    12    13   ar
    21    13    14   ar
    22    14    15   ar
    23     7     8   ar
    24     8     9   ar
    25     9     1   ar
    26    27    22    1
    27     9     5   ar
    28    15    10   ar
    29    16    19    1
    30    16    20    1
    31    26    28    1
@<TRIPOS>MOLECULE
*****
 28 31 0 0 0
SMALL
GASTEIGER

@<TRIPOS>ATOM
      1 C         141.4384  140.8148  169.5537 C.ar    1  UNL1        0.0784
      2 C         142.2261  139.5844  169.8937 C.ar    1  UNL1        0.1070
      3 N         142.9559  138.8394  168.8157 N.ar    1  UNL1       -0.2100
      4 C         142.8980  139.3247  167.3974 C.ar    1  UNL1        0.2252
      5 C         142.1102  140.5550  167.0574 C.ar    1  UNL1        0.0598
      6 C         141.8714  141.2668  165.7589 C.ar    1  UNL1        0.0116
      7 C         140.9940  142.4518  166.0344 C.ar    1  UNL1        0.0296
      8 S         140.6905  142.4724  167.5033 S.2     1  UNL1       -0.0866
      9 C         141.3804  141.3001  168.1355 C.ar    1  UNL1        0.0398
     10 C         140.5057  143.4424  165.0193 C.ar    1  UNL1        0.0060
     11 C         141.4896  144.2143  164.1910 C.ar    1  UNL1        0.0005
     12 C         141.0012  145.2049  163.1760 C.ar    1  UNL1        0.0000
     13 C         139.5290  145.4235  162.9892 C.ar    1  UNL1        0.0000
     14 C         138.5452  144.6516  163.8175 C.ar    1  UNL1        0.0000
     15 C         139.0335  143.6610  164.8326 C.ar    1  UNL1        0.0005
     16 N         139.2130  141.6668  170.5890 N.am    1  UNL1       -0.3253
     17 C         140.7086  141.5598  170.6318 C.2     1  UNL1        0.2448
     18 O         141.4744  142.1980  171.7527 O.2     1  UNL1       -0.2703
     19 H         138.7340  142.1558  171.2966 H       1  UNL1        0.1453
     20 H         138.7104  141.2479  169.8534 H       1  UNL1        0.1453
     21 O         143.6278  138.5796  166.3194 O.3     1  UNL1       -0.4625
     22 C         142.9480  138.2936  165.0133 C.3     1  UNL1        0.1832
     23 C         141.6361  137.5665  164.9941 C.3     1  UNL1        0.0465
     24 C         140.9562  137.2805  163.6880 C.3     1  UNL1        0.0208
     25 C         141.5882  137.7215  162.4011 C.3     1  UNL1        0.0688
     26 N         142.9001  138.4485  162.4203 N.3     1  UNL1       -0.2945
     27 C         143.5800  138.7346  163.7264 C.3     1  UNL1        0.1127
     28 H         142.7447  139.3484  161.9659 H       1  UNL1        0.1234
@<TRIPOS>BOND
     1    16    17   am
     2    17    18    2
     3    17     1    1
     4     1     2   ar
     5     2     3   ar
     6     3     4   ar
     7     4    21    1
     8    22    21    1
     9    22    23    1
    10    23    24    1
    11    24    25    1
    12    25    26    1
    13    26    27    1
    14     4     5   ar
    15     5     6   ar
    16     6     7   ar
    17     7    10    1
    18    10    11   ar
    19    11    12   ar
    20    12    13   ar
    21    13    14   ar
    22    14    15   ar
    23     7     8   ar
    24     8     9   ar
    25     9     1   ar
    26    27    22    1
    27     9     5   ar
    28    15    10   ar
    29    16    19    1
    30    16    20    1
    31    26    28    1
@<TRIPOS>MOLECULE
*****
 28 31 0 0 0
SMALL
GASTEIGER

@<TRIPOS>ATOM
      1 C         139.6831  143.8515  161.5416 C.ar    1  UNL1        0.0784
      2 C         138.9385  143.1178  160.4658 C.ar    1  UNL1        0.1070
      3 N         138.4396  141.7254  160.7150 N.ar    1  UNL1       -0.2100
      4 C         138.6852  141.0665  162.0401 C.ar    1  UNL1        0.2252
      5 C         139.4298  141.8002  163.1158 C.ar    1  UNL1        0.0598
      6 C         139.8194  141.4110  164.5111 C.ar    1  UNL1        0.0116
      7 C         140.5591  142.5629  165.1241 C.ar    1  UNL1        0.0296
      8 S         140.6267  143.6641  164.1078 S.2     1  UNL1       -0.0866
      9 C         139.9288  143.1927  162.8666 C.ar    1  UNL1        0.0398
     10 C         141.1308  142.6062  166.5102 C.ar    1  UNL1        0.0060
     11 C         142.5725  142.2603  166.7380 C.ar    1  UNL1        0.0005
     12 C         143.1442  142.3035  168.1241 C.ar    1  UNL1        0.0000
     13 C         142.2743  142.6927  169.2825 C.ar    1  UNL1        0.0000
     14 C         140.8326  143.0386  169.0547 C.ar    1  UNL1        0.0000
     15 C         140.2609  142.9953  167.6686 C.ar    1  UNL1        0.0005
     16 N         141.6148  145.4701  160.9104 N.am    1  UNL1       -0.3253
     17 C         140.1820  145.2439  161.2923 C.2     1  UNL1        0.2448
     18 O         139.2480  146.4103  161.4251 O.2     1  UNL1       -0.2703
     19 H         141.9423  146.3841  160.7468 H       1  UNL1        0.1453
     20 H         142.2278  144.7047  160.8233 H       1  UNL1        0.1453
     21 O         138.1863  139.6740  162.2892 O.3     1  UNL1       -0.4625
     22 C         139.0948  138.6504  162.9028 C.3     1  UNL1        0.1832
     23 C         138.8698  138.1985  164.3154 C.3     1  UNL1        0.0465
     24 C         139.7783  137.1749  164.9291 C.3     1  UNL1        0.0208
     25 C         140.9119  136.6030  164.1303 C.3     1  UNL1        0.0688
     26 N         141.1368  137.0548  162.7178 N.3     1  UNL1       -0.2945
     27 C         140.2283  138.0785  162.1040 C.3     1  UNL1        0.1127
     28 H         141.0824  136.2228  162.1303 H       1  UNL1        0.1234
@<TRIPOS>BOND
     1    16    17   am
     2    17    18    2
     3    17     1    1
     4     1     2   ar
     5     2     3   ar
     6     3     4   ar
     7     4    21    1
     8    22    21    1
     9    22    23    1
    10    23    24    1
    11    24    25    1
    12    25    26    1
    13    26    27    1
    14     4     5   ar
    15     5     6   ar
    16     6     7   ar
    17     7    10    1
    18    10    11   ar
    19    11    12   ar
    20    12    13   ar
    21    13    14   ar
    22    14    15   ar
    23     7     8   ar
    24     8     9   ar
    25     9     1   ar
    26    27    22    1
    27     9     5   ar
    28    15    10   ar
    29    16    19    1
    30    16    20    1
    31    26    28    1
@<TRIPOS>MOLECULE
*****
 28 31 0 0 0
SMALL
GASTEIGER

@<TRIPOS>ATOM
      1 C         138.9675  139.0544  164.2544 C.ar    1  UNL1        0.0784
      2 C         138.1632  139.3236  163.0172 C.ar    1  UNL1        0.1070
      3 N         137.8550  140.7355  162.6155 N.ar    1  UNL1       -0.2100
      4 C         138.3512  141.8784  163.4509 C.ar    1  UNL1        0.2252
      5 C         139.1555  141.6091  164.6881 C.ar    1  UNL1        0.0598
      6 C         139.7743  142.5251  165.7019 C.ar    1  UNL1        0.0116
      7 C         140.4649  141.6793  166.7303 C.ar    1  UNL1        0.0296
      8 S         140.2729  140.2405  166.3520 S.2     1  UNL1       -0.0866
      9 C         139.4636  140.1971  165.0898 C.ar    1  UNL1        0.0398
     10 C         141.2157  142.1836  167.9270 C.ar    1  UNL1        0.0060
     11 C         142.6548  141.8082  168.1224 C.ar    1  UNL1        0.0005
     12 C         143.4055  142.3126  169.3191 C.ar    1  UNL1        0.0000
     13 C         142.7173  143.1923  170.3203 C.ar    1  UNL1        0.0000
     14 C         141.2783  143.5677  170.1248 C.ar    1  UNL1        0.0000
     15 C         140.5275  143.0633  168.9281 C.ar    1  UNL1        0.0005
     16 N         140.4950  136.9575  164.1140 N.am    1  UNL1       -0.3253
     17 C         139.2756  137.6424  164.6561 C.2     1  UNL1        0.2448
     18 O         138.3642  136.9153  165.6001 O.2     1  UNL1       -0.2703
     19 H         140.6973  136.0308  164.3777 H       1  UNL1        0.1453
     20 H         141.0931  137.4347  163.4945 H       1  UNL1        0.1453
     21 O         138.0430  143.2903  163.0491 O.3     1  UNL1       -0.4625
     22 C         138.9770  144.0321  162.1396 C.3     1  UNL1        0.1832
     23 C         139.3628  143.4403  160.8163 C.3     1  UNL1        0.0465
     24 C         140.2969  144.1821  159.9067 C.3     1  UNL1        0.0208
     25 C         140.8451  145.5156  160.3204 C.3     1  UNL1        0.0688
     26 N         140.4593  146.1074  161.6436 N.3     1  UNL1       -0.2945
     27 C         139.5253  145.3656  162.5532 C.3     1  UNL1        0.1127
     28 H         140.0250  147.0092  161.4475 H       1  UNL1        0.1234
@<TRIPOS>BOND
     1    16    17   am
     2    17    18    2
     3    17     1    1
     4     1     2   ar
     5     2     3   ar
     6     3     4   ar
     7     4    21    1
     8    22    21    1
     9    22    23    1
    10    23    24    1
    11    24    25    1
    12    25    26    1
    13    26    27    1
    14     4     5   ar
    15     5     6   ar
    16     6     7   ar
    17     7    10    1
    18    10    11   ar
    19    11    12   ar
    20    12    13   ar
    21    13    14   ar
    22    14    15   ar
    23     7     8   ar
    24     8     9   ar
    25     9     1   ar
    26    27    22    1
    27     9     5   ar
    28    15    10   ar
    29    16    19    1
    30    16    20    1
    31    26    28    1
@<TRIPOS>MOLECULE
*****
 28 31 0 0 0
SMALL
GASTEIGER

@<TRIPOS>ATOM
      1 C         140.9084  138.9041  163.1837 C.ar    1  UNL1        0.0784
      2 C         141.4723  139.2480  161.8369 C.ar    1  UNL1        0.1070
      3 N         142.0320  140.6166  161.5854 N.ar    1  UNL1       -0.2100
      4 C         142.0279  141.6416  162.6806 C.ar    1  UNL1        0.2252
      5 C         141.4641  141.2977  164.0274 C.ar    1  UNL1        0.0598
      6 C         141.3252  142.0947  165.2906 C.ar    1  UNL1        0.0116
      7 C         140.6796  141.2185  166.3228 C.ar    1  UNL1        0.0296
      8 S         140.4195  139.8800  165.6976 S.2     1  UNL1       -0.0866
      9 C         140.9043  139.9290  164.2789 C.ar    1  UNL1        0.0398
     10 C         140.3517  141.6117  167.7327 C.ar    1  UNL1        0.0060
     11 C         140.6482  143.0018  168.2119 C.ar    1  UNL1        0.0005
     12 C         140.3203  143.3949  169.6219 C.ar    1  UNL1        0.0000
     13 C         139.6959  142.3980  170.5526 C.ar    1  UNL1        0.0000
     14 C         139.3994  141.0078  170.0734 C.ar    1  UNL1        0.0000
     15 C         139.7273  140.6147  168.6634 C.ar    1  UNL1        0.0005
     16 N         141.2429  136.4395  163.9346 N.am    1  UNL1       -0.3253
     17 C         140.3487  137.5354  163.4352 C.2     1  UNL1        0.2448
     18 O         138.8946  137.2625  163.1872 O.2     1  UNL1       -0.2703
     19 H         140.8755  135.5412  164.0997 H       1  UNL1        0.1453
     20 H         142.1972  136.6186  164.0974 H       1  UNL1        0.1453
     21 O         142.5877  143.0103  162.4290 O.3     1  UNL1       -0.4625
     22 C         141.6710  144.1401  162.0639 C.3     1  UNL1        0.1832
     23 C         141.0863  144.2156  160.6846 C.3     1  UNL1        0.0465
     24 C         140.1696  145.3453  160.3195 C.3     1  UNL1        0.0208
     25 C         139.8375  146.3995  161.3336 C.3     1  UNL1        0.0688
     26 N         140.4222  146.3239  162.7129 N.3     1  UNL1       -0.2945
     27 C         141.3389  145.1942  163.0781 C.3     1  UNL1        0.1127
     28 H         139.6376  146.2886  163.3637 H       1  UNL1        0.1234
@<TRIPOS>BOND
     1    16    17   am
     2    17    18    2
     3    17     1    1
     4     1     2   ar
     5     2     3   ar
     6     3     4   ar
     7     4    21    1
     8    22    21    1
     9    22    23    1
    10    23    24    1
    11    24    25    1
    12    25    26    1
    13    26    27    1
    14     4     5   ar
    15     5     6   ar
    16     6     7   ar
    17     7    10    1
    18    10    11   ar
    19    11    12   ar
    20    12    13   ar
    21    13    14   ar
    22    14    15   ar
    23     7     8   ar
    24     8     9   ar
    25     9     1   ar
    26    27    22    1
    27     9     5   ar
    28    15    10   ar
    29    16    19    1
    30    16    20    1
    31    26    28    1
@<TRIPOS>MOLECULE
*****
 28 31 0 0 0
SMALL
GASTEIGER

@<TRIPOS>ATOM
      1 C         138.5102  141.5663  158.7491 C.ar    1  UNL1        0.0784
      2 C         138.8871  142.8831  158.1376 C.ar    1  UNL1        0.1070
      3 N         139.4213  143.9860  159.0023 N.ar    1  UNL1       -0.2100
      4 C         139.5787  143.7723  160.4787 C.ar    1  UNL1        0.2252
      5 C         139.2018  142.4555  161.0902 C.ar    1  UNL1        0.0598
      6 C         139.2464  141.9560  162.5039 C.ar    1  UNL1        0.0116
      7 C         138.7397  140.5442  162.5128 C.ar    1  UNL1        0.0296
      8 S         138.3820  140.1712  161.1046 S.2     1  UNL1       -0.0866
      9 C         138.6676  141.3525  160.2254 C.ar    1  UNL1        0.0398
     10 C         138.6130  139.6606  163.7182 C.ar    1  UNL1        0.0060
     11 C         138.9467  138.2017  163.6171 C.ar    1  UNL1        0.0005
     12 C         138.8199  137.3180  164.8226 C.ar    1  UNL1        0.0000
     13 C         138.3595  137.8933  166.1291 C.ar    1  UNL1        0.0000
     14 C         138.0258  139.3522  166.2303 C.ar    1  UNL1        0.0000
     15 C         138.1526  140.2358  165.0248 C.ar    1  UNL1        0.0005
     16 N         138.8538  139.3023  157.5217 N.am    1  UNL1       -0.3253
     17 C         137.9759  140.4632  157.8843 C.2     1  UNL1        0.2448
     18 O         136.5636  140.5211  157.3820 O.2     1  UNL1       -0.2703
     19 H         138.5032  138.5783  156.9541 H       1  UNL1        0.1453
     20 H         139.7807  139.2643  157.8514 H       1  UNL1        0.1453
     21 O         140.1130  144.8755  161.3434 O.3     1  UNL1       -0.4625
     22 C         141.4635  144.7406  161.9820 C.3     1  UNL1        0.1832
     23 C         141.7062  145.3067  163.3497 C.3     1  UNL1        0.0465
     24 C         143.0567  145.1718  163.9884 C.3     1  UNL1        0.0208
     25 C         144.1645  144.4710  163.2594 C.3     1  UNL1        0.0688
     26 N         143.9218  143.9049  161.8916 N.3     1  UNL1       -0.2945
     27 C         142.5713  144.0397  161.2529 C.3     1  UNL1        0.1127
     28 H         144.1234  142.9065  161.9461 H       1  UNL1        0.1234
@<TRIPOS>BOND
     1    16    17   am
     2    17    18    2
     3    17     1    1
     4     1     2   ar
     5     2     3   ar
     6     3     4   ar
     7     4    21    1
     8    22    21    1
     9    22    23    1
    10    23    24    1
    11    24    25    1
    12    25    26    1
    13    26    27    1
    14     4     5   ar
    15     5     6   ar
    16     6     7   ar
    17     7    10    1
    18    10    11   ar
    19    11    12   ar
    20    12    13   ar
    21    13    14   ar
    22    14    15   ar
    23     7     8   ar
    24     8     9   ar
    25     9     1   ar
    26    27    22    1
    27     9     5   ar
    28    15    10   ar
    29    16    19    1
    30    16    20    1
    31    26    28    1
@<TRIPOS>MOLECULE
*****
 28 31 0 0 0
SMALL
GASTEIGER

@<TRIPOS>ATOM
      1 C         140.4558  144.7038  162.1483 C.ar    1  UNL1        0.0784
      2 C         141.4154  144.7863  160.9984 C.ar    1  UNL1        0.1070
      3 N         142.6789  143.9782  161.0166 N.ar    1  UNL1       -0.2100
      4 C         142.9829  143.0875  162.1847 C.ar    1  UNL1        0.2252
      5 C         142.0233  143.0050  163.3346 C.ar    1  UNL1        0.0598
      6 C         142.0537  142.2210  164.6130 C.ar    1  UNL1        0.0116
      7 C         140.8090  142.5446  165.3849 C.ar    1  UNL1        0.0296
      8 S         140.0092  143.5286  164.5836 S.2     1  UNL1       -0.0866
      9 C         140.7597  143.8132  163.3164 C.ar    1  UNL1        0.0398
     10 C         140.4304  141.9828  166.7232 C.ar    1  UNL1        0.0060
     11 C         140.6231  142.8044  167.9633 C.ar    1  UNL1        0.0005
     12 C         140.2445  142.2425  169.3016 C.ar    1  UNL1        0.0000
     13 C         139.6732  140.8591  169.3998 C.ar    1  UNL1        0.0000
     14 C         139.4804  140.0374  168.1597 C.ar    1  UNL1        0.0000
     15 C         139.8591  140.5993  166.8214 C.ar    1  UNL1        0.0005
     16 N         139.2292  146.9525  161.7136 N.am    1  UNL1       -0.3253
     17 C         139.1922  145.5120  162.1301 C.2     1  UNL1        0.2448
     18 O         137.8916  144.8795  162.5284 O.2     1  UNL1       -0.2703
     19 H         138.3999  147.4829  161.7017 H       1  UNL1        0.1453
     20 H         140.0828  147.3676  161.4522 H       1  UNL1        0.1453
     21 O         144.2465  142.2794  162.2028 O.3     1  UNL1       -0.4625
     22 C         144.1987  140.8062  161.9243 C.3     1  UNL1        0.1832
     23 C         143.8206  140.3130  160.5591 C.3     1  UNL1        0.0465
     24 C         143.7728  138.8399  160.2805 C.3     1  UNL1        0.0208
     25 C         144.1030  137.8600  161.3672 C.3     1  UNL1        0.0688
     26 N         144.4810  138.3533  162.7324 N.3     1  UNL1       -0.2945
     27 C         144.5289  139.8264  163.0110 C.3     1  UNL1        0.1127
     28 H         145.4115  137.9856  162.9311 H       1  UNL1        0.1234
@<TRIPOS>BOND
     1    16    17   am
     2    17    18    2
     3    17     1    1
     4     1     2   ar
     5     2     3   ar
     6     3     4   ar
     7     4    21    1
     8    22    21    1
     9    22    23    1
    10    23    24    1
    11    24    25    1
    12    25    26    1
    13    26    27    1
    14     4     5   ar
    15     5     6   ar
    16     6     7   ar
    17     7    10    1
    18    10    11   ar
    19    11    12   ar
    20    12    13   ar
    21    13    14   ar
    22    14    15   ar
    23     7     8   ar
    24     8     9   ar
    25     9     1   ar
    26    27    22    1
    27     9     5   ar
    28    15    10   ar
    29    16    19    1
    30    16    20    1
    31    26    28    1
@<TRIPOS>MOLECULE
*****
 28 31 0 0 0
SMALL
GASTEIGER

@<TRIPOS>ATOM
      1 C         142.8145  142.8640  162.3857 C.ar    1  UNL1        0.0784
      2 C         141.9996  142.4562  161.1943 C.ar    1  UNL1        0.1070
      3 N         140.6643  141.8010  161.3876 N.ar    1  UNL1       -0.2100
      4 C         140.1437  141.5536  162.7724 C.ar    1  UNL1        0.2252
      5 C         140.9585  141.9614  163.9639 C.ar    1  UNL1        0.0598
      6 C         140.7074  141.8470  165.4383 C.ar    1  UNL1        0.0116
      7 C         141.8877  142.4315  166.1562 C.ar    1  UNL1        0.0296
      8 S         142.8682  142.9072  165.1255 S.2     1  UNL1       -0.0866
      9 C         142.2939  142.6166  163.7706 C.ar    1  UNL1        0.0398
     10 C         142.0576  142.5241  167.6437 C.ar    1  UNL1        0.0060
     11 C         140.8841  142.8674  168.5127 C.ar    1  UNL1        0.0005
     12 C         141.0542  142.9599  170.0002 C.ar    1  UNL1        0.0000
     13 C         142.3975  142.7093  170.6186 C.ar    1  UNL1        0.0000
     14 C         143.5710  142.3660  169.7496 C.ar    1  UNL1        0.0000
     15 C         143.4010  142.2734  168.2621 C.ar    1  UNL1        0.0005
     16 N         145.3006  142.7291  161.6433 N.am    1  UNL1       -0.3253
     17 C         144.1499  143.5193  162.1924 C.2     1  UNL1        0.2448
     18 O         144.3346  144.9648  162.5482 O.2     1  UNL1       -0.2703
     19 H         146.1770  143.1591  161.5164 H       1  UNL1        0.1453
     20 H         145.1793  141.7804  161.4098 H       1  UNL1        0.1453
     21 O         138.8082  140.8983  162.9657 O.3     1  UNL1       -0.4625
     22 C         138.6607  139.7705  163.9435 C.3     1  UNL1        0.1832
     23 C         139.2360  138.4222  163.6254 C.3     1  UNL1        0.0465
     24 C         139.0885  137.2942  164.6032 C.3     1  UNL1        0.0208
     25 C         138.3657  137.5146  165.8990 C.3     1  UNL1        0.0688
     26 N         137.7905  138.8629  166.2170 N.3     1  UNL1       -0.2945
     27 C         137.9379  139.9909  165.2393 C.3     1  UNL1        0.1127
     28 H         138.2235  139.1698  167.0880 H       1  UNL1        0.1234
@<TRIPOS>BOND
     1    16    17   am
     2    17    18    2
     3    17     1    1
     4     1     2   ar
     5     2     3   ar
     6     3     4   ar
     7     4    21    1
     8    22    21    1
     9    22    23    1
    10    23    24    1
    11    24    25    1
    12    25    26    1
    13    26    27    1
    14     4     5   ar
    15     5     6   ar
    16     6     7   ar
    17     7    10    1
    18    10    11   ar
    19    11    12   ar
    20    12    13   ar
    21    13    14   ar
    22    14    15   ar
    23     7     8   ar
    24     8     9   ar
    25     9     1   ar
    26    27    22    1
    27     9     5   ar
    28    15    10   ar
    29    16    19    1
    30    16    20    1
    31    26    28    1
