@<TRIPOS>MOLECULE
*****
 41 43 0 0 0
SMALL
GASTEIGER

@<TRIPOS>ATOM
      1 C         138.5220  139.2112  166.8397 C.2     1  UNL1        0.2312
      2 O         137.4231  138.4757  167.5479 O.2     1  UNL1       -0.2745
      3 N         139.5219  140.0050  167.6270 N.am    1  UNL1       -0.2454
      4 C         138.6939  140.3614  163.0452 C.3     1  UNL1        0.0927
      5 C         138.8184  139.0367  162.3528 C.3     1  UNL1        0.0777
      6 N         138.8441  137.7701  163.1560 N.3     1  UNL1       -0.2967
      7 C         138.7453  137.8283  164.6516 C.3     1  UNL1        0.0777
      8 C         138.6208  139.1530  165.3440 C.3     1  UNL1        0.0933
      9 C         138.5951  140.4196  164.5408 C.3     1  UNL1        0.0210
     10 H         139.7227  137.3003  162.9370 H       1  UNL1        0.1233
     11 N         139.9537  142.2617  161.7995 N.am    1  UNL1       -0.3035
     12 C         138.6682  141.6280  162.2421 C.2     1  UNL1        0.2234
     13 O         137.3570  142.2610  161.8815 O.2     1  UNL1       -0.2751
     14 H         140.8143  141.8462  162.0361 H       1  UNL1        0.1495
     15 C         139.9280  143.5282  160.9963 C.3     1  UNL1        0.1011
     16 C         139.6802  144.8424  161.6759 C.3     1  UNL1        0.0221
     17 C         140.1136  145.0450  163.0975 C.3     1  UNL1        0.0017
     18 C         139.1364  144.8369  164.2164 C.3     1  UNL1        0.0001
     19 C         141.5242  145.4557  163.4003 C.3     1  UNL1        0.0001
     20 C         140.1501  143.4808  159.5136 C.3     1  UNL1        0.1615
     21 O         141.1349  144.4130  158.8725 O.3     1  UNL1       -0.3520
     22 C         143.2301  142.9986  159.4722 C.3     1  UNL1        0.0346
     23 C         142.5162  143.9320  158.5399 C.3     1  UNL1        0.1423
     24 C         140.6208  140.7405  166.9188 C.ar    1  UNL1        0.1404
     25 C         140.5067  142.2182  166.6881 C.ar    1  UNL1        0.0346
     26 C         141.6055  142.9538  165.9799 C.ar    1  UNL1        0.0032
     27 C         142.8184  142.2116  165.5024 C.ar    1  UNL1        0.0308
     28 C         142.9325  140.7338  165.7331 C.ar    1  UNL1        0.2217
     29 N         141.8337  139.9983  166.4413 N.ar    1  UNL1       -0.1966
     30 C         143.9173  142.9472  164.7942 C.3     1  UNL1        0.0269
     31 C         144.0510  142.8418  163.3039 C.3     1  UNL1        0.0048
     32 C         144.8823  143.7880  165.5763 C.3     1  UNL1        0.0048
     33 O         144.1454  139.9916  165.2556 O.3     1  UNL1       -0.4603
     34 C         144.1404  139.3357  163.9067 C.3     1  UNL1        0.2097
     35 C         142.8528  139.1803  163.1530 C.3     1  UNL1        0.0794
     36 C         142.2162  137.8280  163.0268 C.3     1  UNL1        0.1461
     37 O         141.6526  137.3845  161.7094 O.3     1  UNL1       -0.3510
     38 C         142.0508  138.0906  160.4472 C.3     1  UNL1        0.1741
     39 C         139.4231  140.0632  169.1227 C.3     1  UNL1        0.0812
     40 C         140.0708  139.9659  170.4721 C.3     1  UNL1        0.0219
     41 C         138.6042  140.2613  170.3637 C.3     1  UNL1        0.0219
@<TRIPOS>BOND
     1    22    23    1
     2    23    21    1
     3    21    20    1
     4    15    20    1
     5    15    16    1
     6    16    17    1
     7    17    18    1
     8    17    19    1
     9    15    11    1
    10    11    12   am
    11    12    13    2
    12     4    12    1
    13     4     5    1
    14     5     6    1
    15     6     7    1
    16     7     8    1
    17     8     1    1
    18     1     2    2
    19     1     3   am
    20     3    24    1
    21    24    25   ar
    22    25    26   ar
    23    26    27   ar
    24    27    30    1
    25    30    31    1
    26    30    32    1
    27    27    28   ar
    28    28    33    1
    29    33    34    1
    30    34    35    1
    31    35    36    1
    32    36    37    1
    33    37    38    1
    34    28    29   ar
    35     3    39    1
    36    39    40    1
    37    40    41    1
    38     8     9    1
    39     9     4    1
    40    29    24   ar
    41    41    39    1
    42    11    14    1
    43     6    10    1
@<TRIPOS>MOLECULE
*****
 41 43 0 0 0
SMALL
GASTEIGER

@<TRIPOS>ATOM
      1 C         140.3213  140.2190  168.6928 C.2     1  UNL1        0.2312
      2 O         140.0576  139.5920  170.0297 O.2     1  UNL1       -0.2745
      3 N         141.1769  141.4472  168.5961 N.am    1  UNL1       -0.2454
      4 C         139.9944  138.8016  165.0003 C.3     1  UNL1        0.0927
      5 C         138.5453  138.4154  164.9722 C.3     1  UNL1        0.0777
      6 N         137.6881  138.6304  166.1843 N.3     1  UNL1       -0.2967
      7 C         138.2801  139.2316  167.4244 C.3     1  UNL1        0.0777
      8 C         139.7292  139.6178  167.4526 C.3     1  UNL1        0.0933
      9 C         140.5864  139.4028  166.2405 C.3     1  UNL1        0.0210
     10 H         137.3167  137.7178  166.4478 H       1  UNL1        0.1233
     11 N         141.4161  139.7642  163.0505 N.am    1  UNL1       -0.3035
     12 C         140.8516  138.5866  163.7883 C.2     1  UNL1        0.2234
     13 O         141.1442  137.1940  163.3141 O.2     1  UNL1       -0.2751
     14 H         141.2240  140.6783  163.3617 H       1  UNL1        0.1495
     15 C         142.2733  139.5492  161.8384 C.3     1  UNL1        0.1011
     16 C         143.7366  139.2596  161.9965 C.3     1  UNL1        0.0221
     17 C         144.5776  140.1156  162.8964 C.3     1  UNL1        0.0017
     18 C         144.9753  139.6132  164.2527 C.3     1  UNL1        0.0001
     19 C         145.0209  141.4741  162.4401 C.3     1  UNL1        0.0001
     20 C         141.6672  139.6238  160.4684 C.3     1  UNL1        0.1615
     21 O         140.9576  138.4325  159.8962 O.3     1  UNL1       -0.3520
     22 C         141.0839  137.8587  157.3655 C.3     1  UNL1        0.0346
     23 C         140.3697  138.5003  158.5180 C.3     1  UNL1        0.1423
     24 C         141.4405  142.0742  167.2592 C.ar    1  UNL1        0.1404
     25 C         142.7772  141.9024  166.6007 C.ar    1  UNL1        0.0346
     26 C         143.0409  142.5294  165.2637 C.ar    1  UNL1        0.0032
     27 C         141.9678  143.3283  164.5854 C.ar    1  UNL1        0.0308
     28 C         140.6310  143.5002  165.2439 C.ar    1  UNL1        0.2217
     29 N         140.3674  142.8732  166.5808 N.ar    1  UNL1       -0.1966
     30 C         142.2315  143.9553  163.2484 C.3     1  UNL1        0.0269
     31 C         141.6020  143.3815  162.0137 C.3     1  UNL1        0.0048
     32 C         143.1245  145.1562  163.1463 C.3     1  UNL1        0.0048
     33 O         139.5580  144.2991  164.5655 O.3     1  UNL1       -0.4603
     34 C         138.1661  143.7498  164.4620 C.3     1  UNL1        0.2097
     35 C         137.9513  142.3236  164.0498 C.3     1  UNL1        0.0794
     36 C         137.9112  141.9613  162.5948 C.3     1  UNL1        0.1461
     37 O         138.6855  140.7778  162.0950 O.3     1  UNL1       -0.3510
     38 C         137.9645  139.6163  161.4775 C.3     1  UNL1        0.1741
     39 C         141.7690  142.0484  169.8363 C.3     1  UNL1        0.0812
     40 C         142.6796  143.0454  170.4894 C.3     1  UNL1        0.0219
     41 C         141.8837  142.0927  171.3313 C.3     1  UNL1        0.0219
@<TRIPOS>BOND
     1    22    23    1
     2    23    21    1
     3    21    20    1
     4    15    20    1
     5    15    16    1
     6    16    17    1
     7    17    18    1
     8    17    19    1
     9    15    11    1
    10    11    12   am
    11    12    13    2
    12     4    12    1
    13     4     5    1
    14     5     6    1
    15     6     7    1
    16     7     8    1
    17     8     1    1
    18     1     2    2
    19     1     3   am
    20     3    24    1
    21    24    25   ar
    22    25    26   ar
    23    26    27   ar
    24    27    30    1
    25    30    31    1
    26    30    32    1
    27    27    28   ar
    28    28    33    1
    29    33    34    1
    30    34    35    1
    31    35    36    1
    32    36    37    1
    33    37    38    1
    34    28    29   ar
    35     3    39    1
    36    39    40    1
    37    40    41    1
    38     8     9    1
    39     9     4    1
    40    29    24   ar
    41    41    39    1
    42    11    14    1
    43     6    10    1
@<TRIPOS>MOLECULE
*****
 41 43 0 0 0
SMALL
GASTEIGER

@<TRIPOS>ATOM
      1 C         141.1298  140.2854  168.3575 C.2     1  UNL1        0.2312
      2 O         141.3070  139.5932  169.6764 O.2     1  UNL1       -0.2745
      3 N         141.7667  141.6227  168.1209 N.am    1  UNL1       -0.2454
      4 C         140.1554  138.5831  164.9075 C.3     1  UNL1        0.0927
      5 C         138.6877  138.3501  165.1110 C.3     1  UNL1        0.0777
      6 N         138.0339  138.7623  166.3966 N.3     1  UNL1       -0.2967
      7 C         138.8480  139.4074  167.4788 C.3     1  UNL1        0.0777
      8 C         140.3157  139.6403  167.2753 C.3     1  UNL1        0.0933
      9 C         140.9694  139.2281  165.9897 C.3     1  UNL1        0.0210
     10 H         137.6215  137.9212  166.8001 H       1  UNL1        0.1233
     11 N         141.3221  139.2136  162.6734 N.am    1  UNL1       -0.3035
     12 C         140.8091  138.1709  163.6219 C.2     1  UNL1        0.2234
     13 O         140.9498  136.7161  163.2848 O.2     1  UNL1       -0.2751
     14 H         141.2297  140.1684  162.8947 H       1  UNL1        0.1495
     15 C         141.9758  138.8014  161.3878 C.3     1  UNL1        0.1011
     16 C         141.1382  138.5350  160.1723 C.3     1  UNL1        0.0221
     17 C         141.6345  138.9401  158.8160 C.3     1  UNL1        0.0017
     18 C         141.6465  140.3877  158.4232 C.3     1  UNL1        0.0001
     19 C         142.1189  137.8975  157.8524 C.3     1  UNL1        0.0001
     20 C         143.4670  138.6557  161.3177 C.3     1  UNL1        0.1615
     21 O         144.3449  139.8671  161.4260 O.3     1  UNL1       -0.3520
     22 C         144.7106  139.5295  163.9759 C.3     1  UNL1        0.0346
     23 C         144.6868  140.4275  162.7747 C.3     1  UNL1        0.1423
     24 C         141.5895  142.3149  166.8020 C.ar    1  UNL1        0.1404
     25 C         142.7387  142.4058  165.8423 C.ar    1  UNL1        0.0346
     26 C         142.5616  143.0980  164.5234 C.ar    1  UNL1        0.0032
     27 C         141.2352  143.6993  164.1642 C.ar    1  UNL1        0.0308
     28 C         140.0859  143.6085  165.1239 C.ar    1  UNL1        0.2217
     29 N         140.2631  142.9162  166.4428 N.ar    1  UNL1       -0.1966
     30 C         141.0580  144.3916  162.8454 C.3     1  UNL1        0.0269
     31 C         141.0686  143.5963  161.5735 C.3     1  UNL1        0.0048
     32 C         140.8702  145.8790  162.7983 C.3     1  UNL1        0.0048
     33 O         138.7595  144.2098  164.7647 O.3     1  UNL1       -0.4603
     34 C         137.7583  143.4077  163.9875 C.3     1  UNL1        0.2097
     35 C         137.9773  141.9393  163.7732 C.3     1  UNL1        0.0794
     36 C         137.6984  141.3272  162.4325 C.3     1  UNL1        0.1461
     37 O         138.4494  140.1045  161.9955 O.3     1  UNL1       -0.3510
     38 C         137.7006  138.8729  161.5802 C.3     1  UNL1        0.1741
     39 C         142.5808  142.2678  169.2031 C.3     1  UNL1        0.0812
     40 C         143.8971  142.4684  169.8939 C.3     1  UNL1        0.0219
     41 C         142.6747  143.1845  170.3867 C.3     1  UNL1        0.0219
@<TRIPOS>BOND
     1    22    23    1
     2    23    21    1
     3    21    20    1
     4    15    20    1
     5    15    16    1
     6    16    17    1
     7    17    18    1
     8    17    19    1
     9    15    11    1
    10    11    12   am
    11    12    13    2
    12     4    12    1
    13     4     5    1
    14     5     6    1
    15     6     7    1
    16     7     8    1
    17     8     1    1
    18     1     2    2
    19     1     3   am
    20     3    24    1
    21    24    25   ar
    22    25    26   ar
    23    26    27   ar
    24    27    30    1
    25    30    31    1
    26    30    32    1
    27    27    28   ar
    28    28    33    1
    29    33    34    1
    30    34    35    1
    31    35    36    1
    32    36    37    1
    33    37    38    1
    34    28    29   ar
    35     3    39    1
    36    39    40    1
    37    40    41    1
    38     8     9    1
    39     9     4    1
    40    29    24   ar
    41    41    39    1
    42    11    14    1
    43     6    10    1
@<TRIPOS>MOLECULE
*****
 41 43 0 0 0
SMALL
GASTEIGER

@<TRIPOS>ATOM
      1 C         142.8842  138.8082  166.1833 C.2     1  UNL1        0.2312
      2 O         143.8913  138.0148  166.9619 O.2     1  UNL1       -0.2745
      3 N         142.2488  140.0209  166.7960 N.am    1  UNL1       -0.2454
      4 C         142.7732  138.6448  162.2195 C.3     1  UNL1        0.0927
      5 C         141.7694  137.5503  162.0090 C.3     1  UNL1        0.0777
      6 N         141.1372  136.8751  163.1898 N.3     1  UNL1       -0.2967
      7 C         141.5088  137.2944  164.5812 C.3     1  UNL1        0.0777
      8 C         142.5126  138.3889  164.7918 C.3     1  UNL1        0.0933
      9 C         143.1448  139.0641  163.6109 C.3     1  UNL1        0.0210
     10 H         141.3563  135.8818  163.1132 H       1  UNL1        0.1233
     11 N         142.8193  140.5908  160.4988 N.am    1  UNL1       -0.3035
     12 C         143.4054  139.3200  161.0387 C.2     1  UNL1        0.2234
     13 O         144.6238  138.7244  160.3977 O.2     1  UNL1       -0.2751
     14 H         142.0196  140.9817  160.9195 H       1  UNL1        0.1495
     15 C         143.4515  141.2660  159.3180 C.3     1  UNL1        0.1011
     16 C         143.5447  140.5476  158.0044 C.3     1  UNL1        0.0221
     17 C         142.4027  139.6978  157.5317 C.3     1  UNL1        0.0017
     18 C         141.0750  140.3266  157.2288 C.3     1  UNL1        0.0001
     19 C         142.5884  138.2190  157.3617 C.3     1  UNL1        0.0001
     20 C         143.9905  142.6595  159.4506 C.3     1  UNL1        0.1615
     21 O         143.0497  143.8272  159.4862 O.3     1  UNL1       -0.3520
     22 C         140.4778  143.6832  159.8242 C.3     1  UNL1        0.0346
     23 C         141.6696  143.6962  158.9135 C.3     1  UNL1        0.1423
     24 C         141.2417  140.8143  166.0174 C.ar    1  UNL1        0.1404
     25 C         139.7807  140.4974  166.1393 C.ar    1  UNL1        0.0346
     26 C         138.7736  141.2908  165.3607 C.ar    1  UNL1        0.0032
     27 C         139.2275  142.4011  164.4602 C.ar    1  UNL1        0.0308
     28 C         140.6886  142.7181  164.3382 C.ar    1  UNL1        0.2217
     29 N         141.6957  141.9247  165.1168 N.ar    1  UNL1       -0.1966
     30 C         138.2204  143.1945  163.6815 C.3     1  UNL1        0.0269
     31 C         137.6052  144.4228  164.2840 C.3     1  UNL1        0.0048
     32 C         137.8284  142.7596  162.3005 C.3     1  UNL1        0.0048
     33 O         141.1425  143.8284  163.4376 O.3     1  UNL1       -0.4603
     34 C         141.9923  144.9372  163.9839 C.3     1  UNL1        0.2097
     35 C         143.4874  144.8440  163.9067 C.3     1  UNL1        0.0794
     36 C         144.1346  144.0789  162.7905 C.3     1  UNL1        0.1461
     37 O         144.1726  142.5800  162.8321 O.3     1  UNL1       -0.3510
     38 C         145.4769  141.8682  163.0377 C.3     1  UNL1        0.1741
     39 C         142.6204  140.4402  168.1875 C.3     1  UNL1        0.0812
     40 C         143.1444  141.4782  169.1351 C.3     1  UNL1        0.0219
     41 C         142.7402  140.1286  169.6499 C.3     1  UNL1        0.0219
@<TRIPOS>BOND
     1    22    23    1
     2    23    21    1
     3    21    20    1
     4    15    20    1
     5    15    16    1
     6    16    17    1
     7    17    18    1
     8    17    19    1
     9    15    11    1
    10    11    12   am
    11    12    13    2
    12     4    12    1
    13     4     5    1
    14     5     6    1
    15     6     7    1
    16     7     8    1
    17     8     1    1
    18     1     2    2
    19     1     3   am
    20     3    24    1
    21    24    25   ar
    22    25    26   ar
    23    26    27   ar
    24    27    30    1
    25    30    31    1
    26    30    32    1
    27    27    28   ar
    28    28    33    1
    29    33    34    1
    30    34    35    1
    31    35    36    1
    32    36    37    1
    33    37    38    1
    34    28    29   ar
    35     3    39    1
    36    39    40    1
    37    40    41    1
    38     8     9    1
    39     9     4    1
    40    29    24   ar
    41    41    39    1
    42    11    14    1
    43     6    10    1
@<TRIPOS>MOLECULE
*****
 41 43 0 0 0
SMALL
GASTEIGER

@<TRIPOS>ATOM
      1 C         143.4439  138.6917  166.4195 C.2     1  UNL1        0.2312
      2 O         144.2776  137.6310  167.0751 O.2     1  UNL1       -0.2745
      3 N         142.4880  139.5073  167.2386 N.am    1  UNL1       -0.2454
      4 C         142.5525  138.8315  162.5548 C.3     1  UNL1        0.0927
      5 C         143.8104  139.4267  161.9951 C.3     1  UNL1        0.0777
      6 N         144.9462  139.7769  162.9102 N.3     1  UNL1       -0.2967
      7 C         144.8240  139.5319  164.3849 C.3     1  UNL1        0.0777
      8 C         143.5661  138.9367  164.9446 C.3     1  UNL1        0.0933
      9 C         142.4303  138.5865  164.0296 C.3     1  UNL1        0.0210
     10 H         145.1235  140.7743  162.7911 H       1  UNL1        0.1233
     11 N         141.2354  139.2260  160.3504 N.am    1  UNL1       -0.3035
     12 C         141.4167  138.4813  161.6397 C.2     1  UNL1        0.2234
     13 O         140.4623  137.3863  162.0140 O.2     1  UNL1       -0.2751
     14 H         141.8618  139.9447  160.1047 H       1  UNL1        0.1495
     15 C         140.0996  138.8758  159.4353 C.3     1  UNL1        0.1011
     16 C         138.6922  139.2259  159.8187 C.3     1  UNL1        0.0221
     17 C         138.4265  140.4194  160.6876 C.3     1  UNL1        0.0017
     18 C         138.0182  140.2294  162.1183 C.3     1  UNL1        0.0001
     19 C         138.5690  141.8029  160.1256 C.3     1  UNL1        0.0001
     20 C         140.3711  138.1755  158.1369 C.3     1  UNL1        0.1615
     21 O         139.2544  137.9416  157.1631 O.3     1  UNL1       -0.3520
     22 C         140.3072  136.4333  155.3283 C.3     1  UNL1        0.0346
     23 C         139.5618  137.6749  155.7194 C.3     1  UNL1        0.1423
     24 C         141.6543  140.5680  166.5830 C.ar    1  UNL1        0.1404
     25 C         140.1668  140.4006  166.4878 C.ar    1  UNL1        0.0346
     26 C         139.3331  141.4613  165.8321 C.ar    1  UNL1        0.0032
     27 C         139.9869  142.6894  165.2716 C.ar    1  UNL1        0.0308
     28 C         141.4746  142.8568  165.3668 C.ar    1  UNL1        0.2217
     29 N         142.3083  141.7962  166.0224 N.ar    1  UNL1       -0.1966
     30 C         139.1532  143.7501  164.6160 C.3     1  UNL1        0.0269
     31 C         138.6673  144.9228  165.4152 C.3     1  UNL1        0.0048
     32 C         138.8054  143.6381  163.1612 C.3     1  UNL1        0.0048
     33 O         142.1284  144.0849  164.8063 O.3     1  UNL1       -0.4603
     34 C         142.3570  144.2048  163.3287 C.3     1  UNL1        0.2097
     35 C         143.0390  143.0964  162.5829 C.3     1  UNL1        0.0794
     36 C         144.4962  143.2058  162.2443 C.3     1  UNL1        0.1461
     37 O         144.9922  142.7425  160.9067 O.3     1  UNL1       -0.3510
     38 C         144.0159  142.4345  159.8103 C.3     1  UNL1        0.1741
     39 C         142.3658  139.2623  168.7135 C.3     1  UNL1        0.0812
     40 C         142.8561  138.5957  169.9645 C.3     1  UNL1        0.0219
     41 C         141.6639  139.5045  170.0168 C.3     1  UNL1        0.0219
@<TRIPOS>BOND
     1    22    23    1
     2    23    21    1
     3    21    20    1
     4    15    20    1
     5    15    16    1
     6    16    17    1
     7    17    18    1
     8    17    19    1
     9    15    11    1
    10    11    12   am
    11    12    13    2
    12     4    12    1
    13     4     5    1
    14     5     6    1
    15     6     7    1
    16     7     8    1
    17     8     1    1
    18     1     2    2
    19     1     3   am
    20     3    24    1
    21    24    25   ar
    22    25    26   ar
    23    26    27   ar
    24    27    30    1
    25    30    31    1
    26    30    32    1
    27    27    28   ar
    28    28    33    1
    29    33    34    1
    30    34    35    1
    31    35    36    1
    32    36    37    1
    33    37    38    1
    34    28    29   ar
    35     3    39    1
    36    39    40    1
    37    40    41    1
    38     8     9    1
    39     9     4    1
    40    29    24   ar
    41    41    39    1
    42    11    14    1
    43     6    10    1
@<TRIPOS>MOLECULE
*****
 41 43 0 0 0
SMALL
GASTEIGER

@<TRIPOS>ATOM
      1 C         143.5266  139.2923  161.0001 C.2     1  UNL1        0.2312
      2 O         144.4946  138.4863  160.1856 O.2     1  UNL1       -0.2745
      3 N         143.2671  140.7281  160.6520 N.am    1  UNL1       -0.2454
      4 C         142.4595  138.4389  164.7261 C.3     1  UNL1        0.0927
      5 C         141.4012  137.4030  164.4876 C.3     1  UNL1        0.0777
      6 N         141.0514  136.9968  163.0867 N.3     1  UNL1       -0.2967
      7 C         141.7598  137.6266  161.9242 C.3     1  UNL1        0.0777
      8 C         142.8181  138.6625  162.1626 C.3     1  UNL1        0.0933
      9 C         143.1679  139.0686  163.5636 C.3     1  UNL1        0.0210
     10 H         140.0570  137.1882  162.9642 H       1  UNL1        0.1233
     11 N         142.0378  139.9375  166.8060 N.am    1  UNL1       -0.3035
     12 C         142.8093  138.8450  166.1270 C.2     1  UNL1        0.2234
     13 O         143.9307  138.1586  166.8490 O.2     1  UNL1       -0.2751
     14 H         141.3017  140.3880  166.3321 H       1  UNL1        0.1495
     15 C         142.3876  140.3437  168.2069 C.3     1  UNL1        0.1011
     16 C         143.0233  141.6777  168.4645 C.3     1  UNL1        0.0221
     17 C         142.3241  142.6880  169.3250 C.3     1  UNL1        0.0017
     18 C         140.9639  143.1888  168.9393 C.3     1  UNL1        0.0001
     19 C         142.9853  143.1974  170.5714 C.3     1  UNL1        0.0001
     20 C         142.1018  139.4158  169.3503 C.3     1  UNL1        0.1615
     21 O         141.4699  139.9433  170.6043 O.3     1  UNL1       -0.3520
     22 C         139.0999  140.2893  169.5979 C.3     1  UNL1        0.0346
     23 C         139.9780  139.9239  170.7578 C.3     1  UNL1        0.1423
     24 C         142.2991  141.5341  161.4665 C.ar    1  UNL1        0.1404
     25 C         142.8035  142.4425  162.5482 C.ar    1  UNL1        0.0346
     26 C         141.8355  143.2486  163.3626 C.ar    1  UNL1        0.0032
     27 C         140.3631  143.1461  163.0953 C.ar    1  UNL1        0.0308
     28 C         139.8587  142.2376  162.0135 C.ar    1  UNL1        0.2217
     29 N         140.8267  141.4316  161.1991 N.ar    1  UNL1       -0.1966
     30 C         139.3952  143.9522  163.9098 C.3     1  UNL1        0.0269
     31 C         138.4222  144.8681  163.2282 C.3     1  UNL1        0.0048
     32 C         139.4001  143.8423  165.4057 C.3     1  UNL1        0.0048
     33 O         138.3863  142.1352  161.7462 O.3     1  UNL1       -0.4603
     34 C         137.5869  141.0275  162.3657 C.3     1  UNL1        0.2097
     35 C         137.4362  140.9543  163.8564 C.3     1  UNL1        0.0794
     36 C         138.3414  140.0676  164.6591 C.3     1  UNL1        0.1461
     37 O         137.8748  139.5102  165.9711 O.3     1  UNL1       -0.3510
     38 C         138.1766  138.0855  166.3307 C.3     1  UNL1        0.1741
     39 C         143.9756  141.3579  159.4895 C.3     1  UNL1        0.0812
     40 C         144.7715  142.4906  158.9121 C.3     1  UNL1        0.0219
     41 C         144.4069  141.3160  158.0534 C.3     1  UNL1        0.0219
@<TRIPOS>BOND
     1    22    23    1
     2    23    21    1
     3    21    20    1
     4    15    20    1
     5    15    16    1
     6    16    17    1
     7    17    18    1
     8    17    19    1
     9    15    11    1
    10    11    12   am
    11    12    13    2
    12     4    12    1
    13     4     5    1
    14     5     6    1
    15     6     7    1
    16     7     8    1
    17     8     1    1
    18     1     2    2
    19     1     3   am
    20     3    24    1
    21    24    25   ar
    22    25    26   ar
    23    26    27   ar
    24    27    30    1
    25    30    31    1
    26    30    32    1
    27    27    28   ar
    28    28    33    1
    29    33    34    1
    30    34    35    1
    31    35    36    1
    32    36    37    1
    33    37    38    1
    34    28    29   ar
    35     3    39    1
    36    39    40    1
    37    40    41    1
    38     8     9    1
    39     9     4    1
    40    29    24   ar
    41    41    39    1
    42    11    14    1
    43     6    10    1
@<TRIPOS>MOLECULE
*****
 41 43 0 0 0
SMALL
GASTEIGER

@<TRIPOS>ATOM
      1 C         142.8834  138.8794  166.1076 C.2     1  UNL1        0.2312
      2 O         143.8857  138.0732  166.8794 O.2     1  UNL1       -0.2745
      3 N         142.2383  140.0773  166.7390 N.am    1  UNL1       -0.2454
      4 C         142.6516  138.9223  162.1460 C.3     1  UNL1        0.0927
      5 C         141.8124  137.7040  161.8979 C.3     1  UNL1        0.0777
      6 N         141.3302  136.8775  163.0531 N.3     1  UNL1       -0.2967
      7 C         141.6872  137.2693  164.4563 C.3     1  UNL1        0.0777
      8 C         142.5264  138.4875  164.7044 C.3     1  UNL1        0.0933
      9 C         143.0086  139.3140  163.5492 C.3     1  UNL1        0.0210
     10 H         141.6898  135.9338  162.9103 H       1  UNL1        0.1233
     11 N         142.7311  141.1894  160.8795 N.am    1  UNL1       -0.3035
     12 C         143.1338  139.7488  160.9908 C.2     1  UNL1        0.2234
     13 O         144.0187  139.1346  159.9470 O.2     1  UNL1       -0.2751
     14 H         142.1503  141.5924  161.5647 H       1  UNL1        0.1495
     15 C         143.2133  142.0158  159.7244 C.3     1  UNL1        0.1011
     16 C         142.2369  142.5184  158.7025 C.3     1  UNL1        0.0221
     17 C         141.7575  143.9387  158.7582 C.3     1  UNL1        0.0017
     18 C         140.7961  144.3643  159.8280 C.3     1  UNL1        0.0001
     19 C         142.2395  144.9333  157.7440 C.3     1  UNL1        0.0001
     20 C         144.6718  142.3397  159.5911 C.3     1  UNL1        0.1615
     21 O         145.2802  142.5138  158.2311 O.3     1  UNL1       -0.3520
     22 C         144.5953  141.6587  155.8753 C.3     1  UNL1        0.0346
     23 C         145.1981  141.4042  157.2251 C.3     1  UNL1        0.1423
     24 C         141.2360  140.8834  165.9672 C.ar    1  UNL1        0.1404
     25 C         139.7709  140.5965  166.1125 C.ar    1  UNL1        0.0346
     26 C         138.7687  141.4027  165.3407 C.ar    1  UNL1        0.0032
     27 C         139.2315  142.4957  164.4237 C.ar    1  UNL1        0.0308
     28 C         140.6967  142.7826  164.2784 C.ar    1  UNL1        0.2217
     29 N         141.6990  141.9765  165.0502 N.ar    1  UNL1       -0.1966
     30 C         138.2293  143.3018  163.6519 C.3     1  UNL1        0.0269
     31 C         137.9134  142.9433  162.2300 C.3     1  UNL1        0.0048
     32 C         137.5430  144.4665  164.3019 C.3     1  UNL1        0.0048
     33 O         141.1596  143.8757  163.3613 O.3     1  UNL1       -0.4603
     34 C         141.9741  145.0133  163.9018 C.3     1  UNL1        0.2097
     35 C         143.4721  144.9346  163.8914 C.3     1  UNL1        0.0794
     36 C         144.1717  144.0915  162.8670 C.3     1  UNL1        0.1461
     37 O         144.2723  142.6073  163.0591 O.3     1  UNL1       -0.3510
     38 C         145.6111  141.9691  163.2837 C.3     1  UNL1        0.1741
     39 C         142.5953  140.4691  168.1423 C.3     1  UNL1        0.0812
     40 C         142.7003  140.1284  169.5993 C.3     1  UNL1        0.0219
     41 C         143.1087  141.4883  169.1157 C.3     1  UNL1        0.0219
@<TRIPOS>BOND
     1    22    23    1
     2    23    21    1
     3    21    20    1
     4    15    20    1
     5    15    16    1
     6    16    17    1
     7    17    18    1
     8    17    19    1
     9    15    11    1
    10    11    12   am
    11    12    13    2
    12     4    12    1
    13     4     5    1
    14     5     6    1
    15     6     7    1
    16     7     8    1
    17     8     1    1
    18     1     2    2
    19     1     3   am
    20     3    24    1
    21    24    25   ar
    22    25    26   ar
    23    26    27   ar
    24    27    30    1
    25    30    31    1
    26    30    32    1
    27    27    28   ar
    28    28    33    1
    29    33    34    1
    30    34    35    1
    31    35    36    1
    32    36    37    1
    33    37    38    1
    34    28    29   ar
    35     3    39    1
    36    39    40    1
    37    40    41    1
    38     8     9    1
    39     9     4    1
    40    29    24   ar
    41    41    39    1
    42    11    14    1
    43     6    10    1
@<TRIPOS>MOLECULE
*****
 41 43 0 0 0
SMALL
GASTEIGER

@<TRIPOS>ATOM
      1 C         142.8796  138.7161  166.3917 C.2     1  UNL1        0.2312
      2 O         143.8005  137.8237  167.1698 O.2     1  UNL1       -0.2745
      3 N         142.3302  139.9607  167.0235 N.am    1  UNL1       -0.2454
      4 C         142.7187  138.7864  162.4269 C.3     1  UNL1        0.0927
      5 C         141.7649  137.6596  162.1619 C.3     1  UNL1        0.0777
      6 N         141.1825  136.8849  163.3068 N.3     1  UNL1       -0.2967
      7 C         141.5541  137.2370  164.7167 C.3     1  UNL1        0.0777
      8 C         142.5080  138.3639  164.9817 C.3     1  UNL1        0.0933
      9 C         143.0903  139.1386  163.8369 C.3     1  UNL1        0.0210
     10 H         141.4472  135.9097  163.1674 H       1  UNL1        0.1233
     11 N         142.6592  140.8428  160.8402 N.am    1  UNL1       -0.3035
     12 C         143.3011  139.5611  161.2821 C.2     1  UNL1        0.2234
     13 O         144.5252  139.0541  160.5790 O.2     1  UNL1       -0.2751
     14 H         141.8557  141.1756  161.3016 H       1  UNL1        0.1495
     15 C         143.2415  141.6175  159.6953 C.3     1  UNL1        0.1011
     16 C         142.8110  141.3168  158.2902 C.3     1  UNL1        0.0221
     17 C         143.5551  140.2973  157.4797 C.3     1  UNL1        0.0017
     18 C         144.8535  140.6630  156.8237 C.3     1  UNL1        0.0001
     19 C         143.0008  138.9120  157.3253 C.3     1  UNL1        0.0001
     20 C         144.2544  142.6928  159.9555 C.3     1  UNL1        0.1615
     21 O         144.9073  142.7983  161.3018 O.3     1  UNL1       -0.3520
     22 C         142.9681  144.1787  162.3432 C.3     1  UNL1        0.0346
     23 C         144.4224  143.8145  162.2929 C.3     1  UNL1        0.1423
     24 C         141.4093  140.8531  166.2454 C.ar    1  UNL1        0.1404
     25 C         141.7892  142.2811  165.9877 C.ar    1  UNL1        0.0346
     26 C         140.8683  143.1736  165.2096 C.ar    1  UNL1        0.0032
     27 C         139.5674  142.6380  164.6892 C.ar    1  UNL1        0.0308
     28 C         139.1875  141.2099  164.9468 C.ar    1  UNL1        0.2217
     29 N         140.1084  140.3175  165.7249 N.ar    1  UNL1       -0.1966
     30 C         138.6465  143.5304  163.9111 C.3     1  UNL1        0.0269
     31 C         138.7685  143.6155  162.4184 C.3     1  UNL1        0.0048
     32 C         137.6036  144.3378  164.6255 C.3     1  UNL1        0.0048
     33 O         137.8866  140.6744  164.4264 O.3     1  UNL1       -0.4603
     34 C         137.8553  139.8951  163.1451 C.3     1  UNL1        0.2097
     35 C         139.0797  139.8219  162.2816 C.3     1  UNL1        0.0794
     36 C         139.0242  140.2964  160.8598 C.3     1  UNL1        0.1461
     37 O         139.9909  139.7533  159.8497 O.3     1  UNL1       -0.3510
     38 C         139.4977  139.3007  158.5072 C.3     1  UNL1        0.1741
     39 C         142.7018  140.3129  168.4335 C.3     1  UNL1        0.0812
     40 C         142.7758  139.9493  169.8868 C.3     1  UNL1        0.0219
     41 C         143.2714  141.2866  169.4222 C.3     1  UNL1        0.0219
@<TRIPOS>BOND
     1    22    23    1
     2    23    21    1
     3    21    20    1
     4    15    20    1
     5    15    16    1
     6    16    17    1
     7    17    18    1
     8    17    19    1
     9    15    11    1
    10    11    12   am
    11    12    13    2
    12     4    12    1
    13     4     5    1
    14     5     6    1
    15     6     7    1
    16     7     8    1
    17     8     1    1
    18     1     2    2
    19     1     3   am
    20     3    24    1
    21    24    25   ar
    22    25    26   ar
    23    26    27   ar
    24    27    30    1
    25    30    31    1
    26    30    32    1
    27    27    28   ar
    28    28    33    1
    29    33    34    1
    30    34    35    1
    31    35    36    1
    32    36    37    1
    33    37    38    1
    34    28    29   ar
    35     3    39    1
    36    39    40    1
    37    40    41    1
    38     8     9    1
    39     9     4    1
    40    29    24   ar
    41    41    39    1
    42    11    14    1
    43     6    10    1
@<TRIPOS>MOLECULE
*****
 41 43 0 0 0
SMALL
GASTEIGER

@<TRIPOS>ATOM
      1 C         139.1838  143.6455  163.8342 C.2     1  UNL1        0.2312
      2 O         138.4639  144.8605  164.3396 O.2     1  UNL1       -0.2745
      3 N         139.9160  143.6976  162.5261 N.am    1  UNL1       -0.2454
      4 C         140.2657  140.8285  166.4119 C.3     1  UNL1        0.0927
      5 C         139.1467  139.8441  166.2421 C.3     1  UNL1        0.0777
      6 N         138.0402  140.1268  165.2696 N.3     1  UNL1       -0.2967
      7 C         138.0525  141.3939  164.4670 C.3     1  UNL1        0.0777
      8 C         139.1714  142.3783  164.6368 C.3     1  UNL1        0.0933
      9 C         140.2780  142.0956  165.6092 C.3     1  UNL1        0.0210
     10 H         137.1712  140.1250  165.8038 H       1  UNL1        0.1233
     11 N         141.0583  139.9545  168.7266 N.am    1  UNL1       -0.3035
     12 C         141.3722  140.5459  167.3843 C.2     1  UNL1        0.2234
     13 O         142.7927  140.8546  167.0145 O.2     1  UNL1       -0.2751
     14 H         140.1259  139.7519  168.9693 H       1  UNL1        0.1495
     15 C         142.1648  139.6719  169.6990 C.3     1  UNL1        0.1011
     16 C         142.5556  140.7068  170.7121 C.3     1  UNL1        0.0221
     17 C         142.8414  142.1132  170.2756 C.3     1  UNL1        0.0017
     18 C         141.7266  143.1130  170.1894 C.3     1  UNL1        0.0001
     19 C         144.2422  142.5197  169.9253 C.3     1  UNL1        0.0001
     20 C         142.8806  138.3544  169.6584 C.3     1  UNL1        0.1615
     21 O         143.7631  137.9447  170.8001 O.3     1  UNL1       -0.3520
     22 C         145.2836  135.8586  171.0938 C.3     1  UNL1        0.0346
     23 C         143.9249  136.4926  171.1394 C.3     1  UNL1        0.1423
     24 C         140.6359  142.4826  162.0206 C.ar    1  UNL1        0.1404
     25 C         142.1156  142.3479  162.2259 C.ar    1  UNL1        0.0346
     26 C         142.8355  141.1329  161.7205 C.ar    1  UNL1        0.0032
     27 C         142.0757  140.0525  161.0096 C.ar    1  UNL1        0.0308
     28 C         140.5958  140.1871  160.8043 C.ar    1  UNL1        0.2217
     29 N         139.8760  141.4021  161.3097 N.ar    1  UNL1       -0.1966
     30 C         142.7955  138.8375  160.5041 C.3     1  UNL1        0.0269
     31 C         142.7612  138.4991  159.0432 C.3     1  UNL1        0.0048
     32 C         143.5497  137.9610  161.4595 C.3     1  UNL1        0.0048
     33 O         139.8360  139.1067  160.0934 O.3     1  UNL1       -0.4603
     34 C         139.1739  138.0141  160.8794 C.3     1  UNL1        0.2097
     35 C         139.0931  138.1087  162.3743 C.3     1  UNL1        0.0794
     36 C         140.1805  137.5195  163.2229 C.3     1  UNL1        0.1461
     37 O         141.1567  138.4186  163.9218 O.3     1  UNL1       -0.3510
     38 C         142.0870  137.8563  164.9556 C.3     1  UNL1        0.1741
     39 C         139.9284  144.9648  161.7234 C.3     1  UNL1        0.0812
     40 C         139.5737  146.4151  161.5800 C.3     1  UNL1        0.0219
     41 C         140.3046  145.7092  160.4767 C.3     1  UNL1        0.0219
@<TRIPOS>BOND
     1    22    23    1
     2    23    21    1
     3    21    20    1
     4    15    20    1
     5    15    16    1
     6    16    17    1
     7    17    18    1
     8    17    19    1
     9    15    11    1
    10    11    12   am
    11    12    13    2
    12     4    12    1
    13     4     5    1
    14     5     6    1
    15     6     7    1
    16     7     8    1
    17     8     1    1
    18     1     2    2
    19     1     3   am
    20     3    24    1
    21    24    25   ar
    22    25    26   ar
    23    26    27   ar
    24    27    30    1
    25    30    31    1
    26    30    32    1
    27    27    28   ar
    28    28    33    1
    29    33    34    1
    30    34    35    1
    31    35    36    1
    32    36    37    1
    33    37    38    1
    34    28    29   ar
    35     3    39    1
    36    39    40    1
    37    40    41    1
    38     8     9    1
    39     9     4    1
    40    29    24   ar
    41    41    39    1
    42    11    14    1
    43     6    10    1
