@<TRIPOS>MOLECULE
*****
 60 62 0 0 0
SMALL
GASTEIGER

@<TRIPOS>ATOM
      1 C         142.4254  137.8867  157.6902 C.3     1  UNL1        0.1486
      2 N         144.0441  139.9113  157.5133 N.am    1  UNL1       -0.2970
      3 C         142.9388  139.0775  156.9362 C.2     1  UNL1        0.2406
      4 O         142.3468  139.4345  155.6049 O.2     1  UNL1       -0.2733
      5 H         144.4326  139.6770  158.3870 H       1  UNL1        0.1499
      6 C         144.5574  141.1021  156.7592 C.3     1  UNL1        0.1488
      7 C         142.1723  144.5356  160.1902 C.3     1  UNL1        0.0765
      8 C         141.8068  145.0030  158.8126 C.3     1  UNL1        0.0412
      9 C         142.3117  144.2614  157.6104 C.3     1  UNL1        0.0951
     10 N         143.1821  143.0525  157.7859 N.am    1  UNL1       -0.2781
     11 C         143.6870  142.3110  156.5838 C.2     1  UNL1        0.2435
     12 O         143.3215  142.7783  155.2061 O.2     1  UNL1       -0.2731
     13 C         143.5476  142.5852  159.1635 C.3     1  UNL1        0.0951
     14 C         143.0427  143.3267  160.3657 C.3     1  UNL1        0.0412
     15 C         138.8918  144.8984  164.2035 C.3     1  UNL1        0.1122
     16 N         140.0271  145.4586  163.3990 N.am    1  UNL1       -0.2872
     17 C         140.5321  144.7171  162.1969 C.2     1  UNL1        0.3008
     18 O         139.9016  143.4153  161.7992 O.2     1  UNL1       -0.2528
     19 N         141.6674  145.2772  161.3924 N.am    1  UNL1       -0.2905
     20 H         140.4409  146.3130  163.6600 H       1  UNL1        0.1510
     21 H         142.0812  146.1315  161.6533 H       1  UNL1        0.1509
     22 C         145.9412  141.0838  156.1807 C.3     1  UNL1        0.0290
     23 C         146.7976  142.3137  156.2458 C.3     1  UNL1        0.0036
     24 C         147.7442  142.6286  155.1256 C.3     1  UNL1        0.0169
     25 C         147.2943  143.4904  153.9834 C.3     1  UNL1        0.0651
     26 N         146.8148  144.8880  154.2418 N.3     1  UNL1       -0.3211
     27 H         145.9505  144.8564  154.7825 H       1  UNL1        0.1189
     28 H         146.6429  145.3583  153.3532 H       1  UNL1        0.1189
     29 N         142.2267  137.9677  159.1748 N.am    1  UNL1       -0.2970
     30 C         141.0013  138.6292  159.7325 C.2     1  UNL1        0.2410
     31 O         139.9747  139.2096  158.8057 O.2     1  UNL1       -0.2733
     32 H         142.9006  137.5868  159.7832 H       1  UNL1        0.1499
     33 C         140.8027  138.7102  161.2171 C.3     1  UNL1        0.1530
     34 N         139.9559  139.8016  161.8020 N.am    1  UNL1       -0.2969
     35 C         138.4996  139.5601  162.0679 C.2     1  UNL1        0.2389
     36 O         137.8899  138.2272  161.7489 O.2     1  UNL1       -0.2736
     37 H         140.3561  140.6764  162.0114 H       1  UNL1        0.1499
     38 C         137.6530  140.6514  162.6528 C.3     1  UNL1        0.1549
     39 N         137.4694  140.7435  164.1387 N.3     1  UNL1       -0.2895
     40 H         137.4960  139.7894  164.4984 H       1  UNL1        0.1237
     41 C         138.4313  141.5447  164.9650 C.3     1  UNL1        0.0733
     42 C         139.5429  140.8562  165.7000 C.3     1  UNL1        0.0381
     43 C         139.2809  139.5653  166.4177 C.3     1  UNL1        0.0061
     44 C         140.9165  141.4586  165.7173 C.ar    1  UNL1       -0.0212
     45 C         141.5635  141.8877  164.4338 C.ar    1  UNL1       -0.0042
     46 C         142.9372  142.4901  164.4512 C.ar    1  UNL1       -0.0003
     47 C         143.6638  142.6633  165.7520 C.ar    1  UNL1       -0.0000
     48 C         143.0168  142.2341  167.0354 C.ar    1  UNL1       -0.0003
     49 C         141.6432  141.6317  167.0181 C.ar    1  UNL1       -0.0042
     50 C         141.4507  137.7000  162.1167 C.3     1  UNL1        0.0553
     51 C         142.3743  138.1515  163.2090 C.ar    1  UNL1       -0.0200
     52 C         142.0131  137.9094  164.6445 C.ar    1  UNL1       -0.0042
     53 C         142.9367  138.3609  165.7368 C.ar    1  UNL1       -0.0003
     54 C         144.2216  139.0545  165.3935 C.ar    1  UNL1       -0.0000
     55 C         144.5829  139.2966  163.9579 C.ar    1  UNL1       -0.0003
     56 C         143.6593  138.8451  162.8656 C.ar    1  UNL1       -0.0042
     57 C         142.1107  136.6150  156.9597 C.3     1  UNL1        0.0290
     58 C         143.2102  135.6520  156.6228 C.3     1  UNL1        0.0021
     59 C         144.0959  135.9089  155.4397 C.3     1  UNL1        0.0001
     60 C         143.4241  134.4319  157.4688 C.3     1  UNL1        0.0001
@<TRIPOS>BOND
     1    15    16    1
     2    16    17   am
     3    17    18    2
     4    17    19   am
     5    19     7    1
     6     7     8    1
     7     8     9    1
     8     9    10    1
     9    10    11   am
    10    11    12    2
    11    11     6    1
    12     6    22    1
    13    22    23    1
    14    23    24    1
    15    24    25    1
    16    25    26    1
    17     6     2    1
    18     2     3   am
    19     3     4    2
    20     3     1    1
    21     1    57    1
    22    57    58    1
    23    58    59    1
    24    58    60    1
    25     1    29    1
    26    29    30   am
    27    30    31    2
    28    30    33    1
    29    33    50    1
    30    50    51    1
    31    51    52   ar
    32    52    53   ar
    33    53    54   ar
    34    54    55   ar
    35    55    56   ar
    36    33    34    1
    37    34    35   am
    38    35    36    2
    39    35    38    1
    40    38    39    1
    41    39    41    1
    42    41    42    1
    43    42    43    1
    44    42    44    1
    45    44    45   ar
    46    45    46   ar
    47    46    47   ar
    48    47    48   ar
    49    48    49   ar
    50    10    13    1
    51    13    14    1
    52    14     7    1
    53    56    51   ar
    54    49    44   ar
    55    16    20    1
    56    19    21    1
    57    26    27    1
    58    26    28    1
    59     2     5    1
    60    29    32    1
    61    34    37    1
    62    39    40    1
@<TRIPOS>MOLECULE
*****
 60 62 0 0 0
SMALL
GASTEIGER

@<TRIPOS>ATOM
      1 C         141.7955  144.7514  157.1591 C.3     1  UNL1        0.1486
      2 N         140.4813  142.5147  157.0184 N.am    1  UNL1       -0.2970
      3 C         141.7257  143.3090  156.7531 C.2     1  UNL1        0.2406
      4 O         142.9002  142.6611  156.0818 O.2     1  UNL1       -0.2733
      5 H         139.7104  142.9399  157.4590 H       1  UNL1        0.1499
      6 C         140.4114  141.0723  156.6124 C.3     1  UNL1        0.1488
      7 C         139.0962  138.9947  161.4294 C.3     1  UNL1        0.0765
      8 C         140.3402  138.2790  160.9933 C.3     1  UNL1        0.0412
      9 C         140.9800  138.6195  159.6800 C.3     1  UNL1        0.0951
     10 N         140.3758  139.6757  158.8029 N.am    1  UNL1       -0.2781
     11 C         141.0156  140.0161  157.4896 C.2     1  UNL1        0.2435
     12 O         142.2596  139.3005  157.0534 O.2     1  UNL1       -0.2731
     13 C         139.1318  140.3913  159.2390 C.3     1  UNL1        0.0951
     14 C         138.4920  140.0508  160.5523 C.3     1  UNL1        0.0412
     15 C         138.9180  139.4561  166.6020 C.3     1  UNL1        0.1122
     16 N         138.3673  138.8849  165.3290 N.am    1  UNL1       -0.2872
     17 C         139.0071  139.2253  164.0157 C.2     1  UNL1        0.3008
     18 O         140.1976  140.1370  163.9754 O.2     1  UNL1       -0.2528
     19 N         138.4564  138.6542  162.7427 N.am    1  UNL1       -0.2905
     20 H         137.5859  138.2865  165.3554 H       1  UNL1        0.1510
     21 H         137.6751  138.0558  162.7692 H       1  UNL1        0.1509
     22 C         139.7373  140.6862  155.3292 C.3     1  UNL1        0.0290
     23 C         138.6221  141.5288  154.7848 C.3     1  UNL1        0.0036
     24 C         137.2003  141.2155  155.1459 C.3     1  UNL1        0.0169
     25 C         136.6770  141.5681  156.5067 C.3     1  UNL1        0.0651
     26 N         137.2397  142.7466  157.2445 N.3     1  UNL1       -0.3211
     27 H         138.2161  142.5666  157.4785 H       1  UNL1        0.1189
     28 H         136.7070  142.8974  158.1011 H       1  UNL1        0.1189
     29 N         141.9391  145.1169  158.6068 N.am    1  UNL1       -0.2970
     30 C         140.8213  144.8339  159.5663 C.2     1  UNL1        0.2410
     31 O         139.5600  144.1854  159.0780 O.2     1  UNL1       -0.2733
     32 H         142.7670  145.5426  158.9272 H       1  UNL1        0.1499
     33 C         140.9649  145.1994  161.0139 C.3     1  UNL1        0.1530
     34 N         142.3139  145.1545  161.6686 N.am    1  UNL1       -0.2969
     35 C         142.8729  143.8468  162.1453 C.2     1  UNL1        0.2389
     36 O         142.0832  142.5840  161.9675 O.2     1  UNL1       -0.2736
     37 H         142.8322  145.9833  161.7853 H       1  UNL1        0.1499
     38 C         144.2218  143.8019  162.7999 C.3     1  UNL1        0.1549
     39 N         145.2333  142.7835  162.3643 N.3     1  UNL1       -0.2895
     40 H         146.1132  143.2815  162.2294 H       1  UNL1        0.1237
     41 C         145.5338  141.6029  163.2394 C.3     1  UNL1        0.0733
     42 C         144.5345  140.4918  163.3691 C.3     1  UNL1        0.0381
     43 C         144.1709  139.6664  162.1705 C.3     1  UNL1        0.0061
     44 C         143.8987  140.2061  164.6973 C.ar    1  UNL1       -0.0212
     45 C         143.2219  141.3081  165.4574 C.ar    1  UNL1       -0.0042
     46 C         142.5861  141.0224  166.7856 C.ar    1  UNL1       -0.0003
     47 C         142.6272  139.6347  167.3538 C.ar    1  UNL1       -0.0000
     48 C         143.3040  138.5329  166.5937 C.ar    1  UNL1       -0.0003
     49 C         143.9398  138.8186  165.2655 C.ar    1  UNL1       -0.0042
     50 C         139.7597  145.6099  161.8070 C.3     1  UNL1        0.0553
     51 C         139.1318  144.6464  162.7700 C.ar    1  UNL1       -0.0200
     52 C         138.2059  143.5790  162.2666 C.ar    1  UNL1       -0.0042
     53 C         137.5780  142.6155  163.2296 C.ar    1  UNL1       -0.0003
     54 C         137.8760  142.7194  164.6960 C.ar    1  UNL1       -0.0000
     55 C         138.8019  143.7868  165.1995 C.ar    1  UNL1       -0.0003
     56 C         139.4298  144.7503  164.2365 C.ar    1  UNL1       -0.0042
     57 C         141.7218  145.8282  156.1175 C.3     1  UNL1        0.0290
     58 C         140.3951  146.2227  155.5393 C.3     1  UNL1        0.0021
     59 C         140.3292  147.2407  154.4395 C.3     1  UNL1        0.0001
     60 C         139.1344  145.5993  156.0609 C.3     1  UNL1        0.0001
@<TRIPOS>BOND
     1    15    16    1
     2    16    17   am
     3    17    18    2
     4    17    19   am
     5    19     7    1
     6     7     8    1
     7     8     9    1
     8     9    10    1
     9    10    11   am
    10    11    12    2
    11    11     6    1
    12     6    22    1
    13    22    23    1
    14    23    24    1
    15    24    25    1
    16    25    26    1
    17     6     2    1
    18     2     3   am
    19     3     4    2
    20     3     1    1
    21     1    57    1
    22    57    58    1
    23    58    59    1
    24    58    60    1
    25     1    29    1
    26    29    30   am
    27    30    31    2
    28    30    33    1
    29    33    50    1
    30    50    51    1
    31    51    52   ar
    32    52    53   ar
    33    53    54   ar
    34    54    55   ar
    35    55    56   ar
    36    33    34    1
    37    34    35   am
    38    35    36    2
    39    35    38    1
    40    38    39    1
    41    39    41    1
    42    41    42    1
    43    42    43    1
    44    42    44    1
    45    44    45   ar
    46    45    46   ar
    47    46    47   ar
    48    47    48   ar
    49    48    49   ar
    50    10    13    1
    51    13    14    1
    52    14     7    1
    53    56    51   ar
    54    49    44   ar
    55    16    20    1
    56    19    21    1
    57    26    27    1
    58    26    28    1
    59     2     5    1
    60    29    32    1
    61    34    37    1
    62    39    40    1
@<TRIPOS>MOLECULE
*****
 60 62 0 0 0
SMALL
GASTEIGER

@<TRIPOS>ATOM
      1 C         139.8060  139.7418  162.3715 C.3     1  UNL1        0.1486
      2 N         140.9647  139.5499  160.0541 N.am    1  UNL1       -0.2970
      3 C         139.8171  140.0203  160.8976 C.2     1  UNL1        0.2406
      4 O         138.6804  140.7691  160.2673 O.2     1  UNL1       -0.2733
      5 H         141.7107  139.0584  160.4677 H       1  UNL1        0.1499
      6 C         140.9758  139.8285  158.5801 C.3     1  UNL1        0.1488
      7 C         142.5139  135.4606  155.7862 C.3     1  UNL1        0.0765
      8 C         141.0661  135.6757  155.4583 C.3     1  UNL1        0.0412
      9 C         140.3196  136.8214  156.0748 C.3     1  UNL1        0.0951
     10 N         141.0209  137.7521  157.0192 N.am    1  UNL1       -0.2781
     11 C         140.2744  138.8978  157.6357 C.2     1  UNL1        0.2435
     12 O         138.8266  139.1128  157.3078 O.2     1  UNL1       -0.2731
     13 C         142.4687  137.5370  157.3471 C.3     1  UNL1        0.0951
     14 C         143.2152  136.3913  156.7306 C.3     1  UNL1        0.0412
     15 C         144.1099  130.5185  155.9543 C.3     1  UNL1        0.1122
     16 N         144.0584  131.8439  155.2536 N.am    1  UNL1       -0.2872
     17 C         143.3119  132.9896  155.8702 C.2     1  UNL1        0.3008
     18 O         142.6169  132.8099  157.1873 O.2     1  UNL1       -0.2528
     19 N         143.2604  134.3149  155.1696 N.am    1  UNL1       -0.2905
     20 H         144.5146  131.9618  154.3892 H       1  UNL1        0.1510
     21 H         143.7165  134.4328  154.3052 H       1  UNL1        0.1509
     22 C         141.6882  141.0377  158.0507 C.3     1  UNL1        0.0290
     23 C         140.9678  141.9992  157.1525 C.3     1  UNL1        0.0036
     24 C         139.7874  142.7673  157.6690 C.3     1  UNL1        0.0169
     25 C         139.9769  143.8079  158.7325 C.3     1  UNL1        0.0651
     26 N         139.2211  143.7065  160.0242 N.3     1  UNL1       -0.3211
     27 H         138.2240  143.8253  159.8449 H       1  UNL1        0.1189
     28 H         139.5407  144.4344  160.6632 H       1  UNL1        0.1189
     29 N         140.8486  140.3551  163.2585 N.am    1  UNL1       -0.2970
     30 C         141.9803  139.5175  163.7759 C.2     1  UNL1        0.2410
     31 O         142.0694  138.0665  163.4063 O.2     1  UNL1       -0.2733
     32 H         140.7902  141.3075  163.5011 H       1  UNL1        0.1499
     33 C         143.0229  140.1309  164.6629 C.3     1  UNL1        0.1530
     34 N         143.9798  141.1431  164.1064 N.am    1  UNL1       -0.2969
     35 C         144.1946  141.2370  162.6249 C.2     1  UNL1        0.2389
     36 O         143.4525  140.3186  161.6998 O.2     1  UNL1       -0.2736
     37 H         144.4669  141.7459  164.7136 H       1  UNL1        0.1499
     38 C         145.1515  142.2492  162.0684 C.3     1  UNL1        0.1549
     39 N         144.6875  143.6493  161.7955 N.3     1  UNL1       -0.2895
     40 H         144.8485  143.8248  160.8037 H       1  UNL1        0.1237
     41 C         143.2664  144.0370  162.0786 C.3     1  UNL1        0.0733
     42 C         142.8775  144.5141  163.4465 C.3     1  UNL1        0.0381
     43 C         143.8863  145.2065  164.3143 C.3     1  UNL1        0.0061
     44 C         141.4798  144.2989  163.9467 C.ar    1  UNL1       -0.0212
     45 C         140.3292  144.9917  163.2787 C.ar    1  UNL1       -0.0042
     46 C         138.9315  144.7765  163.7789 C.ar    1  UNL1       -0.0003
     47 C         138.6845  143.8684  164.9470 C.ar    1  UNL1       -0.0000
     48 C         139.8351  143.1757  165.6149 C.ar    1  UNL1       -0.0003
     49 C         141.2328  143.3909  165.1148 C.ar    1  UNL1       -0.0042
     50 C         143.1086  139.7320  166.1063 C.3     1  UNL1        0.0553
     51 C         142.2826  140.4490  167.1329 C.ar    1  UNL1       -0.0200
     52 C         140.9027  139.9601  167.4599 C.ar    1  UNL1       -0.0042
     53 C         140.0768  140.6771  168.4864 C.ar    1  UNL1       -0.0003
     54 C         140.6306  141.8828  169.1859 C.ar    1  UNL1       -0.0000
     55 C         142.0105  142.3717  168.8589 C.ar    1  UNL1       -0.0003
     56 C         142.8365  141.6548  167.8324 C.ar    1  UNL1       -0.0042
     57 C         138.7524  138.8499  162.9584 C.3     1  UNL1        0.0290
     58 C         138.6018  138.7462  164.4472 C.3     1  UNL1        0.0021
     59 C         139.0055  137.4873  165.1560 C.3     1  UNL1        0.0001
     60 C         138.0475  139.9013  165.2272 C.3     1  UNL1        0.0001
@<TRIPOS>BOND
     1    15    16    1
     2    16    17   am
     3    17    18    2
     4    17    19   am
     5    19     7    1
     6     7     8    1
     7     8     9    1
     8     9    10    1
     9    10    11   am
    10    11    12    2
    11    11     6    1
    12     6    22    1
    13    22    23    1
    14    23    24    1
    15    24    25    1
    16    25    26    1
    17     6     2    1
    18     2     3   am
    19     3     4    2
    20     3     1    1
    21     1    57    1
    22    57    58    1
    23    58    59    1
    24    58    60    1
    25     1    29    1
    26    29    30   am
    27    30    31    2
    28    30    33    1
    29    33    50    1
    30    50    51    1
    31    51    52   ar
    32    52    53   ar
    33    53    54   ar
    34    54    55   ar
    35    55    56   ar
    36    33    34    1
    37    34    35   am
    38    35    36    2
    39    35    38    1
    40    38    39    1
    41    39    41    1
    42    41    42    1
    43    42    43    1
    44    42    44    1
    45    44    45   ar
    46    45    46   ar
    47    46    47   ar
    48    47    48   ar
    49    48    49   ar
    50    10    13    1
    51    13    14    1
    52    14     7    1
    53    56    51   ar
    54    49    44   ar
    55    16    20    1
    56    19    21    1
    57    26    27    1
    58    26    28    1
    59     2     5    1
    60    29    32    1
    61    34    37    1
    62    39    40    1
@<TRIPOS>MOLECULE
*****
 60 62 0 0 0
SMALL
GASTEIGER

@<TRIPOS>ATOM
      1 C         143.2231  140.1530  161.8687 C.3     1  UNL1        0.1486
      2 N         142.2025  139.6950  159.5238 N.am    1  UNL1       -0.2970
      3 C         143.1983  140.4072  160.3906 C.2     1  UNL1        0.2406
      4 O         144.1692  141.3734  159.7793 O.2     1  UNL1       -0.2733
      5 H         141.5653  139.0609  159.9250 H       1  UNL1        0.1499
      6 C         142.1777  139.9492  158.0456 C.3     1  UNL1        0.1488
      7 C         141.8356  135.4438  155.0733 C.3     1  UNL1        0.0765
      8 C         143.2212  135.9778  154.8615 C.3     1  UNL1        0.0412
      9 C         143.6531  137.2376  155.5516 C.3     1  UNL1        0.0951
     10 N         142.6994  137.9635  156.4536 N.am    1  UNL1       -0.2781
     11 C         143.1314  139.2233  157.1437 C.2     1  UNL1        0.2435
     12 O         144.5170  139.7572  156.9319 O.2     1  UNL1       -0.2731
     13 C         141.3138  137.4295  156.6653 C.3     1  UNL1        0.0951
     14 C         140.8819  136.1697  155.9752 C.3     1  UNL1        0.0412
     15 C         141.2497  130.2808  155.0842 C.3     1  UNL1        0.1122
     16 N         141.1107  131.6025  154.3885 N.am    1  UNL1       -0.2872
     17 C         141.5426  132.8624  155.0787 C.2     1  UNL1        0.3008
     18 O         142.1135  132.8005  156.4644 O.2     1  UNL1       -0.2528
     19 N         141.4036  134.1840  154.3831 N.am    1  UNL1       -0.2905
     20 H         140.7359  131.6431  153.4790 H       1  UNL1        0.1510
     21 H         141.0289  134.2246  153.4736 H       1  UNL1        0.1509
     22 C         141.1991  140.9292  157.4695 C.3     1  UNL1        0.0290
     23 C         141.4549  141.5417  156.1243 C.3     1  UNL1        0.0036
     24 C         142.0334  142.9221  156.0265 C.3     1  UNL1        0.0169
     25 C         142.9367  143.4352  157.1086 C.3     1  UNL1        0.0651
     26 N         144.3363  142.9093  157.2293 N.3     1  UNL1       -0.3211
     27 H         144.3077  141.9222  157.4845 H       1  UNL1        0.1189
     28 H         144.8351  143.4323  157.9491 H       1  UNL1        0.1189
     29 N         142.0518  140.5496  162.7177 N.am    1  UNL1       -0.2970
     30 C         140.9139  139.5932  162.9196 C.2     1  UNL1        0.2410
     31 O         140.9474  138.2404  162.2726 O.2     1  UNL1       -0.2733
     32 H         142.0298  141.4375  163.1424 H       1  UNL1        0.1499
     33 C         139.7426  139.9898  163.7686 C.3     1  UNL1        0.1530
     34 N         138.9777  141.2412  163.4538 N.am    1  UNL1       -0.2969
     35 C         138.8801  141.7243  162.0371 C.2     1  UNL1        0.2389
     36 O         139.5474  140.9560  160.9351 O.2     1  UNL1       -0.2736
     37 H         138.5397  141.7455  164.1771 H       1  UNL1        0.1499
     38 C         138.1153  142.9756  161.7224 C.3     1  UNL1        0.1549
     39 N         138.8380  144.2836  161.5917 N.3     1  UNL1       -0.2895
     40 H         138.4144  144.7768  160.8059 H       1  UNL1        0.1237
     41 C         138.8637  145.2446  162.7431 C.3     1  UNL1        0.0733
     42 C         139.3768  144.7993  164.0804 C.3     1  UNL1        0.0381
     43 C         138.4333  144.6645  165.2388 C.3     1  UNL1        0.0061
     44 C         140.8333  144.4887  164.2594 C.ar    1  UNL1       -0.0212
     45 C         141.2520  143.2924  165.0618 C.ar    1  UNL1       -0.0042
     46 C         142.7085  142.9818  165.2408 C.ar    1  UNL1       -0.0003
     47 C         143.7464  143.8674  164.6174 C.ar    1  UNL1       -0.0000
     48 C         143.3277  145.0636  163.8150 C.ar    1  UNL1       -0.0003
     49 C         141.8712  145.3742  163.6360 C.ar    1  UNL1       -0.0042
     50 C         139.3361  139.1350  164.9322 C.3     1  UNL1        0.0553
     51 C         139.8052  139.4783  166.3150 C.ar    1  UNL1       -0.0200
     52 C         138.8146  139.5966  167.4352 C.ar    1  UNL1       -0.0042
     53 C         139.2837  139.9399  168.8180 C.ar    1  UNL1       -0.0003
     54 C         140.7432  140.1649  169.0806 C.ar    1  UNL1       -0.0000
     55 C         141.7338  140.0466  167.9604 C.ar    1  UNL1       -0.0003
     56 C         141.2648  139.7033  166.5776 C.ar    1  UNL1       -0.0042
     57 C         144.4193  139.5024  162.4979 C.3     1  UNL1        0.0290
     58 C         144.9094  139.9689  163.8365 C.3     1  UNL1        0.0021
     59 C         144.5348  139.2136  165.0773 C.3     1  UNL1        0.0001
     60 C         145.7740  141.1907  163.9346 C.3     1  UNL1        0.0001
@<TRIPOS>BOND
     1    15    16    1
     2    16    17   am
     3    17    18    2
     4    17    19   am
     5    19     7    1
     6     7     8    1
     7     8     9    1
     8     9    10    1
     9    10    11   am
    10    11    12    2
    11    11     6    1
    12     6    22    1
    13    22    23    1
    14    23    24    1
    15    24    25    1
    16    25    26    1
    17     6     2    1
    18     2     3   am
    19     3     4    2
    20     3     1    1
    21     1    57    1
    22    57    58    1
    23    58    59    1
    24    58    60    1
    25     1    29    1
    26    29    30   am
    27    30    31    2
    28    30    33    1
    29    33    50    1
    30    50    51    1
    31    51    52   ar
    32    52    53   ar
    33    53    54   ar
    34    54    55   ar
    35    55    56   ar
    36    33    34    1
    37    34    35   am
    38    35    36    2
    39    35    38    1
    40    38    39    1
    41    39    41    1
    42    41    42    1
    43    42    43    1
    44    42    44    1
    45    44    45   ar
    46    45    46   ar
    47    46    47   ar
    48    47    48   ar
    49    48    49   ar
    50    10    13    1
    51    13    14    1
    52    14     7    1
    53    56    51   ar
    54    49    44   ar
    55    16    20    1
    56    19    21    1
    57    26    27    1
    58    26    28    1
    59     2     5    1
    60    29    32    1
    61    34    37    1
    62    39    40    1
@<TRIPOS>MOLECULE
*****
 60 62 0 0 0
SMALL
GASTEIGER

@<TRIPOS>ATOM
      1 C         141.6932  139.3536  162.5031 C.3     1  UNL1        0.1486
      2 N         142.5046  140.2619  160.2081 N.am    1  UNL1       -0.2970
      3 C         141.5113  139.4844  161.0199 C.2     1  UNL1        0.2406
      4 O         140.3362  138.8377  160.3485 O.2     1  UNL1       -0.2733
      5 H         143.2758  140.6864  160.6488 H       1  UNL1        0.1499
      6 C         142.3226  140.3928  158.7249 C.3     1  UNL1        0.1488
      7 C         141.7540  136.0485  155.5541 C.3     1  UNL1        0.0765
      8 C         143.1649  136.5206  155.3638 C.3     1  UNL1        0.0412
      9 C         143.6598  137.7247  156.1090 C.3     1  UNL1        0.0951
     10 N         142.7438  138.4567  157.0444 N.am    1  UNL1       -0.2781
     11 C         143.2387  139.6608  157.7895 C.2     1  UNL1        0.2435
     12 O         144.6496  140.1329  157.5992 O.2     1  UNL1       -0.2731
     13 C         141.3328  137.9846  157.2347 C.3     1  UNL1        0.0951
     14 C         140.8379  136.7804  156.4895 C.3     1  UNL1        0.0412
     15 C         141.3079  130.8890  155.1292 C.3     1  UNL1        0.1122
     16 N         141.0360  132.2647  154.5965 N.am    1  UNL1       -0.2872
     17 C         141.5309  133.4688  155.3416 C.2     1  UNL1        0.3008
     18 O         142.2977  133.2972  156.6194 O.2     1  UNL1       -0.2528
     19 N         141.2591  134.8444  154.8090 N.am    1  UNL1       -0.2905
     20 H         140.5328  132.3772  153.7579 H       1  UNL1        0.1510
     21 H         140.7558  134.9570  153.9704 H       1  UNL1        0.1509
     22 C         141.2247  141.2556  158.1772 C.3     1  UNL1        0.0290
     23 C         141.4017  141.9473  156.8580 C.3     1  UNL1        0.0036
     24 C         141.1631  143.4241  156.7476 C.3     1  UNL1        0.0169
     25 C         142.2840  144.3864  157.0071 C.3     1  UNL1        0.0651
     26 N         143.3387  144.0537  158.0205 N.3     1  UNL1       -0.3211
     27 H         142.9198  144.0249  158.9501 H       1  UNL1        0.1189
     28 H         144.0683  144.7661  157.9983 H       1  UNL1        0.1189
     29 N         140.7140  139.9986  163.4386 N.am    1  UNL1       -0.2970
     30 C         139.4976  139.2445  163.8877 C.2     1  UNL1        0.2410
     31 O         139.2604  137.8455  163.4015 O.2     1  UNL1       -0.2733
     32 H         140.8697  140.9168  163.7577 H       1  UNL1        0.1499
     33 C         138.5183  139.8894  164.8232 C.3     1  UNL1        0.1530
     34 N         137.7042  141.0629  164.3645 N.am    1  UNL1       -0.2969
     35 C         138.3204  142.4295  164.3140 C.2     1  UNL1        0.2389
     36 O         139.7508  142.6227  164.7222 O.2     1  UNL1       -0.2736
     37 H         136.7654  140.9361  164.0966 H       1  UNL1        0.1499
     38 C         137.5063  143.6028  163.8554 C.3     1  UNL1        0.1549
     39 N         137.8117  144.2602  162.5421 N.3     1  UNL1       -0.2895
     40 H         137.0101  144.8481  162.3137 H       1  UNL1        0.1237
     41 C         139.0332  145.1189  162.3993 C.3     1  UNL1        0.0733
     42 C         140.1739  144.6631  161.5385 C.3     1  UNL1        0.0381
     43 C         139.9510  144.3907  160.0804 C.3     1  UNL1        0.0061
     44 C         141.5376  144.4797  162.1358 C.ar    1  UNL1       -0.0212
     45 C         142.5230  143.5545  161.4854 C.ar    1  UNL1       -0.0042
     46 C         143.8867  143.3710  162.0827 C.ar    1  UNL1       -0.0003
     47 C         144.2649  144.1128  163.3305 C.ar    1  UNL1       -0.0000
     48 C         143.2795  145.0379  163.9808 C.ar    1  UNL1       -0.0003
     49 C         141.9158  145.2213  163.3835 C.ar    1  UNL1       -0.0042
     50 C         138.3532  139.3611  166.2173 C.3     1  UNL1        0.0553
     51 C         139.2725  139.8238  167.3085 C.ar    1  UNL1       -0.0200
     52 C         140.6693  140.2594  166.9781 C.ar    1  UNL1       -0.0042
     53 C         141.5886  140.7221  168.0693 C.ar    1  UNL1       -0.0003
     54 C         141.1111  140.7492  169.4910 C.ar    1  UNL1       -0.0000
     55 C         139.7143  140.3135  169.8215 C.ar    1  UNL1       -0.0003
     56 C         138.7950  139.8508  168.7303 C.ar    1  UNL1       -0.0042
     57 C         142.8543  138.5778  163.0508 C.3     1  UNL1        0.0290
     58 C         143.6034  139.0916  164.2444 C.3     1  UNL1        0.0021
     59 C         144.5446  140.2503  164.0976 C.3     1  UNL1        0.0001
     60 C         143.4112  138.4466  165.5850 C.3     1  UNL1        0.0001
@<TRIPOS>BOND
     1    15    16    1
     2    16    17   am
     3    17    18    2
     4    17    19   am
     5    19     7    1
     6     7     8    1
     7     8     9    1
     8     9    10    1
     9    10    11   am
    10    11    12    2
    11    11     6    1
    12     6    22    1
    13    22    23    1
    14    23    24    1
    15    24    25    1
    16    25    26    1
    17     6     2    1
    18     2     3   am
    19     3     4    2
    20     3     1    1
    21     1    57    1
    22    57    58    1
    23    58    59    1
    24    58    60    1
    25     1    29    1
    26    29    30   am
    27    30    31    2
    28    30    33    1
    29    33    50    1
    30    50    51    1
    31    51    52   ar
    32    52    53   ar
    33    53    54   ar
    34    54    55   ar
    35    55    56   ar
    36    33    34    1
    37    34    35   am
    38    35    36    2
    39    35    38    1
    40    38    39    1
    41    39    41    1
    42    41    42    1
    43    42    43    1
    44    42    44    1
    45    44    45   ar
    46    45    46   ar
    47    46    47   ar
    48    47    48   ar
    49    48    49   ar
    50    10    13    1
    51    13    14    1
    52    14     7    1
    53    56    51   ar
    54    49    44   ar
    55    16    20    1
    56    19    21    1
    57    26    27    1
    58    26    28    1
    59     2     5    1
    60    29    32    1
    61    34    37    1
    62    39    40    1
@<TRIPOS>MOLECULE
*****
 60 62 0 0 0
SMALL
GASTEIGER

@<TRIPOS>ATOM
      1 C         140.5886  144.0643  162.1890 C.3     1  UNL1        0.1486
      2 N         139.6155  144.2238  159.7853 N.am    1  UNL1       -0.2970
      3 C         140.7745  144.3524  160.7287 C.2     1  UNL1        0.2406
      4 O         142.1195  144.7693  160.2118 O.2     1  UNL1       -0.2733
      5 H         138.7327  143.9502  160.1245 H       1  UNL1        0.1499
      6 C         139.8014  144.5119  158.3250 C.3     1  UNL1        0.1488
      7 C         142.3667  140.1853  156.3376 C.3     1  UNL1        0.0765
      8 C         141.0404  140.2399  155.6390 C.3     1  UNL1        0.0412
      9 C         140.0675  141.3352  155.9612 C.3     1  UNL1        0.0951
     10 N         140.4209  142.3759  156.9820 N.am    1  UNL1       -0.2781
     11 C         139.4480  143.4712  157.3042 C.2     1  UNL1        0.2435
     12 O         138.1218  143.5258  156.6057 O.2     1  UNL1       -0.2731
     13 C         141.7472  142.3213  157.6805 C.3     1  UNL1        0.0951
     14 C         142.7201  141.2260  157.3583 C.3     1  UNL1        0.0412
     15 C         143.7210  135.1720  156.5195 C.3     1  UNL1        0.1122
     16 N         144.0168  136.5834  156.1063 N.am    1  UNL1       -0.2872
     17 C         143.0439  137.6787  156.4285 C.2     1  UNL1        0.3008
     18 O         141.7752  137.3626  157.1639 O.2     1  UNL1       -0.2528
     19 N         143.3396  139.0900  156.0154 N.am    1  UNL1       -0.2905
     20 H         144.8494  136.7908  155.6236 H       1  UNL1        0.1510
     21 H         144.1722  139.2974  155.5327 H       1  UNL1        0.1509
     22 C         140.3408  145.8408  157.8855 C.3     1  UNL1        0.0290
     23 C         141.3782  145.9087  156.8042 C.3     1  UNL1        0.0036
     24 C         140.9766  146.2498  155.3998 C.3     1  UNL1        0.0169
     25 C         140.5155  145.1686  154.4680 C.3     1  UNL1        0.0651
     26 N         139.0937  145.1458  153.9906 N.3     1  UNL1       -0.3211
     27 H         138.4729  144.9671  154.7799 H       1  UNL1        0.1189
     28 H         138.9804  144.4083  153.2951 H       1  UNL1        0.1189
     29 N         141.2288  142.8543  162.8021 N.am    1  UNL1       -0.2970
     30 C         142.5141  142.9904  163.5634 C.2     1  UNL1        0.2410
     31 O         143.1591  144.3365  163.7116 O.2     1  UNL1       -0.2733
     32 H         140.8055  141.9708  162.7049 H       1  UNL1        0.1499
     33 C         143.1544  141.7804  164.1766 C.3     1  UNL1        0.1530
     34 N         143.2596  140.5076  163.3898 N.am    1  UNL1       -0.2969
     35 C         142.5553  139.2716  163.8652 C.2     1  UNL1        0.2389
     36 O         141.7457  139.3083  165.1274 O.2     1  UNL1       -0.2736
     37 H         143.7910  140.4836  162.5613 H       1  UNL1        0.1499
     38 C         142.6605  137.9989  163.0783 C.3     1  UNL1        0.1549
     39 N         141.4187  137.3171  162.5852 N.3     1  UNL1       -0.2895
     40 H         140.8670  137.0782  163.4091 H       1  UNL1        0.1237
     41 C         140.4978  138.0288  161.6389 C.3     1  UNL1        0.0733
     42 C         139.1056  138.3826  162.0710 C.3     1  UNL1        0.0381
     43 C         137.9952  138.4236  161.0633 C.3     1  UNL1        0.0061
     44 C         138.8238  138.6953  163.5107 C.ar    1  UNL1       -0.0212
     45 C         138.7314  137.5850  164.5152 C.ar    1  UNL1       -0.0042
     46 C         138.4495  137.8977  165.9549 C.ar    1  UNL1       -0.0003
     47 C         138.2602  139.3207  166.3902 C.ar    1  UNL1       -0.0000
     48 C         138.3527  140.4309  165.3857 C.ar    1  UNL1       -0.0003
     49 C         138.6345  140.1182  163.9460 C.ar    1  UNL1       -0.0042
     50 C         143.6894  141.8431  165.5765 C.3     1  UNL1        0.0553
     51 C         142.7714  142.1719  166.7163 C.ar    1  UNL1       -0.0200
     52 C         143.3102  142.2538  168.1137 C.ar    1  UNL1       -0.0042
     53 C         142.3921  142.5826  169.2535 C.ar    1  UNL1       -0.0003
     54 C         140.9352  142.8294  168.9958 C.ar    1  UNL1       -0.0000
     55 C         140.3963  142.7474  167.5983 C.ar    1  UNL1       -0.0003
     56 C         141.3144  142.4187  166.4585 C.ar    1  UNL1       -0.0042
     57 C         139.7624  144.9861  163.0361 C.3     1  UNL1        0.0290
     58 C         138.6440  144.4367  163.8712 C.3     1  UNL1        0.0021
     59 C         138.5393  144.8062  165.3212 C.3     1  UNL1        0.0001
     60 C         137.6303  143.5178  163.2563 C.3     1  UNL1        0.0001
@<TRIPOS>BOND
     1    15    16    1
     2    16    17   am
     3    17    18    2
     4    17    19   am
     5    19     7    1
     6     7     8    1
     7     8     9    1
     8     9    10    1
     9    10    11   am
    10    11    12    2
    11    11     6    1
    12     6    22    1
    13    22    23    1
    14    23    24    1
    15    24    25    1
    16    25    26    1
    17     6     2    1
    18     2     3   am
    19     3     4    2
    20     3     1    1
    21     1    57    1
    22    57    58    1
    23    58    59    1
    24    58    60    1
    25     1    29    1
    26    29    30   am
    27    30    31    2
    28    30    33    1
    29    33    50    1
    30    50    51    1
    31    51    52   ar
    32    52    53   ar
    33    53    54   ar
    34    54    55   ar
    35    55    56   ar
    36    33    34    1
    37    34    35   am
    38    35    36    2
    39    35    38    1
    40    38    39    1
    41    39    41    1
    42    41    42    1
    43    42    43    1
    44    42    44    1
    45    44    45   ar
    46    45    46   ar
    47    46    47   ar
    48    47    48   ar
    49    48    49   ar
    50    10    13    1
    51    13    14    1
    52    14     7    1
    53    56    51   ar
    54    49    44   ar
    55    16    20    1
    56    19    21    1
    57    26    27    1
    58    26    28    1
    59     2     5    1
    60    29    32    1
    61    34    37    1
    62    39    40    1
@<TRIPOS>MOLECULE
*****
 60 62 0 0 0
SMALL
GASTEIGER

@<TRIPOS>ATOM
      1 C         141.4979  137.9138  156.8298 C.3     1  UNL1        0.1486
      2 N         140.1457  140.0580  156.2603 N.am    1  UNL1       -0.2970
      3 C         141.2416  139.0879  155.9320 C.2     1  UNL1        0.2406
      4 O         142.0813  139.2919  154.7059 O.2     1  UNL1       -0.2733
      5 H         139.5945  139.9241  157.0651 H       1  UNL1        0.1499
      6 C         139.8894  141.2321  155.3626 C.3     1  UNL1        0.1488
      7 C         141.4116  144.5087  159.3871 C.3     1  UNL1        0.0765
      8 C         142.0803  145.0307  158.1501 C.3     1  UNL1        0.0412
      9 C         141.8669  144.3420  156.8347 C.3     1  UNL1        0.0951
     10 N         140.9849  143.1314  156.7563 N.am    1  UNL1       -0.2781
     11 C         140.7715  142.4427  155.4409 C.2     1  UNL1        0.2435
     12 O         141.4402  142.9648  154.2039 O.2     1  UNL1       -0.2731
     13 C         140.3161  142.6094  157.9934 C.3     1  UNL1        0.0951
     14 C         140.5295  143.2980  159.3087 C.3     1  UNL1        0.0412
     15 C         143.6835  144.6868  164.0569 C.3     1  UNL1        0.1122
     16 N         142.7609  145.2864  163.0374 N.am    1  UNL1       -0.2872
     17 C         142.5475  144.5978  161.7220 C.2     1  UNL1        0.3008
     18 O         143.2567  143.3095  161.4261 O.2     1  UNL1       -0.2528
     19 N         141.6250  145.1973  160.7025 N.am    1  UNL1       -0.2905
     20 H         142.2954  146.1319  163.2316 H       1  UNL1        0.1510
     21 H         141.1595  146.0428  160.8967 H       1  UNL1        0.1509
     22 C         138.7510  141.1954  154.3865 C.3     1  UNL1        0.0290
     23 C         138.6577  140.0830  153.3845 C.3     1  UNL1        0.0036
     24 C         137.7472  138.9185  153.6395 C.3     1  UNL1        0.0169
     25 C         138.3088  137.6256  154.1523 C.3     1  UNL1        0.0651
     26 N         138.2250  137.2988  155.6138 N.3     1  UNL1       -0.3211
     27 H         138.7989  137.9557  156.1426 H       1  UNL1        0.1189
     28 H         138.5638  136.3494  155.7699 H       1  UNL1        0.1189
     29 N         141.6010  138.1123  158.3130 N.am    1  UNL1       -0.2970
     30 C         140.3751  138.4400  159.1129 C.2     1  UNL1        0.2410
     31 O         139.0461  138.5692  158.4295 O.2     1  UNL1       -0.2733
     32 H         142.4733  138.0275  158.7615 H       1  UNL1        0.1499
     33 C         140.4782  138.6384  160.5961 C.3     1  UNL1        0.1530
     34 N         141.5645  139.5036  161.1633 N.am    1  UNL1       -0.2969
     35 C         142.9384  138.9401  161.3749 C.2     1  UNL1        0.2389
     36 O         143.2261  137.5115  161.0194 O.2     1  UNL1       -0.2736
     37 H         141.3756  140.4412  161.3966 H       1  UNL1        0.1499
     38 C         144.0246  139.8052  161.9421 C.3     1  UNL1        0.1549
     39 N         144.7877  139.3542  163.1522 N.3     1  UNL1       -0.2895
     40 H         145.7780  139.4180  162.9164 H       1  UNL1        0.1237
     41 C         144.6074  140.0652  164.4606 C.3     1  UNL1        0.0733
     42 C         143.3673  139.8376  165.2731 C.3     1  UNL1        0.0381
     43 C         143.1591  138.5273  165.9730 C.3     1  UNL1        0.0061
     44 C         142.3352  140.9203  165.3858 C.ar    1  UNL1       -0.0212
     45 C         141.9183  141.4214  166.7368 C.ar    1  UNL1       -0.0042
     46 C         140.8863  142.5040  166.8495 C.ar    1  UNL1       -0.0003
     47 C         140.2712  143.0857  165.6111 C.ar    1  UNL1       -0.0000
     48 C         140.6881  142.5846  164.2602 C.ar    1  UNL1       -0.0003
     49 C         141.7201  141.5019  164.1475 C.ar    1  UNL1       -0.0042
     50 C         139.4951  137.9718  161.5121 C.3     1  UNL1        0.0553
     51 C         139.1992  138.5678  162.8564 C.ar    1  UNL1       -0.0200
     52 C         139.8052  137.9703  164.0916 C.ar    1  UNL1       -0.0042
     53 C         139.5093  138.5663  165.4359 C.ar    1  UNL1       -0.0003
     54 C         138.6074  139.7599  165.5451 C.ar    1  UNL1       -0.0000
     55 C         138.0014  140.3575  164.3099 C.ar    1  UNL1       -0.0003
     56 C         138.2973  139.7615  162.9656 C.ar    1  UNL1       -0.0042
     57 C         141.6510  136.5414  156.2443 C.3     1  UNL1        0.0290
     58 C         142.9906  135.8666  156.2550 C.3     1  UNL1        0.0021
     59 C         143.1617  134.5500  156.9531 C.3     1  UNL1        0.0001
     60 C         144.1592  136.5085  155.5676 C.3     1  UNL1        0.0001
@<TRIPOS>BOND
     1    15    16    1
     2    16    17   am
     3    17    18    2
     4    17    19   am
     5    19     7    1
     6     7     8    1
     7     8     9    1
     8     9    10    1
     9    10    11   am
    10    11    12    2
    11    11     6    1
    12     6    22    1
    13    22    23    1
    14    23    24    1
    15    24    25    1
    16    25    26    1
    17     6     2    1
    18     2     3   am
    19     3     4    2
    20     3     1    1
    21     1    57    1
    22    57    58    1
    23    58    59    1
    24    58    60    1
    25     1    29    1
    26    29    30   am
    27    30    31    2
    28    30    33    1
    29    33    50    1
    30    50    51    1
    31    51    52   ar
    32    52    53   ar
    33    53    54   ar
    34    54    55   ar
    35    55    56   ar
    36    33    34    1
    37    34    35   am
    38    35    36    2
    39    35    38    1
    40    38    39    1
    41    39    41    1
    42    41    42    1
    43    42    43    1
    44    42    44    1
    45    44    45   ar
    46    45    46   ar
    47    46    47   ar
    48    47    48   ar
    49    48    49   ar
    50    10    13    1
    51    13    14    1
    52    14     7    1
    53    56    51   ar
    54    49    44   ar
    55    16    20    1
    56    19    21    1
    57    26    27    1
    58    26    28    1
    59     2     5    1
    60    29    32    1
    61    34    37    1
    62    39    40    1
@<TRIPOS>MOLECULE
*****
 60 62 0 0 0
SMALL
GASTEIGER

@<TRIPOS>ATOM
      1 C         138.1056  142.5219  157.4355 C.3     1  UNL1        0.1486
      2 N         136.6791  141.7792  155.3950 N.am    1  UNL1       -0.2970
      3 C         137.1814  141.5343  156.7870 C.2     1  UNL1        0.2406
      4 O         136.7597  140.3016  157.5304 O.2     1  UNL1       -0.2733
      5 H         136.9560  142.5883  154.9070 H       1  UNL1        0.1499
      6 C         135.7550  140.7916  154.7464 C.3     1  UNL1        0.1488
      7 C         131.1861  139.8077  157.4680 C.3     1  UNL1        0.0765
      8 C         130.7887  140.6088  156.2638 C.3     1  UNL1        0.0412
      9 C         131.8316  141.0550  155.2823 C.3     1  UNL1        0.0951
     10 N         133.2719  140.7002  155.5051 N.am    1  UNL1       -0.2781
     11 C         134.3147  141.1464  154.5236 C.2     1  UNL1        0.2435
     12 O         133.9173  141.9475  153.3194 O.2     1  UNL1       -0.2731
     13 C         133.6692  139.8991  156.7094 C.3     1  UNL1        0.0951
     14 C         132.6264  139.4529  157.6908 C.3     1  UNL1        0.0412
     15 C         127.4380  136.4858  158.8525 C.3     1  UNL1        0.1122
     16 N         128.2692  137.7006  159.1418 N.am    1  UNL1       -0.2872
     17 C         129.3121  138.1468  158.1603 C.2     1  UNL1        0.3008
     18 O         129.5238  137.3783  156.8896 O.2     1  UNL1       -0.2528
     19 N         130.1432  139.3615  158.4495 N.am    1  UNL1       -0.2905
     20 H         128.1302  138.2049  159.9758 H       1  UNL1        0.1510
     21 H         130.0043  139.8658  159.2835 H       1  UNL1        0.1509
     22 C         136.2712  139.4491  154.3207 C.3     1  UNL1        0.0290
     23 C         137.6817  139.3092  153.8297 C.3     1  UNL1        0.0036
     24 C         138.7183  138.6633  154.7005 C.3     1  UNL1        0.0169
     25 C         138.6662  137.1868  154.9594 C.3     1  UNL1        0.0651
     26 N         139.0312  136.6490  156.3113 N.3     1  UNL1       -0.3211
     27 H         140.0213  136.8185  156.4886 H       1  UNL1        0.1189
     28 H         138.8476  135.6461  156.3391 H       1  UNL1        0.1189
     29 N         138.1277  142.6595  158.9290 N.am    1  UNL1       -0.2970
     30 C         138.9732  141.7359  159.7549 C.2     1  UNL1        0.2410
     31 O         139.7966  140.6746  159.0872 O.2     1  UNL1       -0.2733
     32 H         137.5873  143.3561  159.3673 H       1  UNL1        0.1499
     33 C         138.9953  141.8735  161.2484 C.3     1  UNL1        0.1530
     34 N         140.1187  142.6089  161.9173 N.am    1  UNL1       -0.2969
     35 C         140.2405  144.0956  161.7600 C.2     1  UNL1        0.2389
     36 O         139.2391  144.8470  160.9339 O.2     1  UNL1       -0.2736
     37 H         140.7760  142.1157  162.4595 H       1  UNL1        0.1499
     38 C         141.3638  144.8309  162.4289 C.3     1  UNL1        0.1549
     39 N         141.4851  144.8157  163.9239 N.3     1  UNL1       -0.2895
     40 H         140.5365  144.8557  164.2967 H       1  UNL1        0.1237
     41 C         142.1718  143.6716  164.6091 C.3     1  UNL1        0.0733
     42 C         141.3656  142.6568  165.3642 C.3     1  UNL1        0.0381
     43 C         140.1462  143.0838  166.1262 C.3     1  UNL1        0.0061
     44 C         141.7788  141.2148  165.3572 C.ar    1  UNL1       -0.0212
     45 C         142.0399  140.5032  166.6516 C.ar    1  UNL1       -0.0042
     46 C         142.4532  139.0613  166.6447 C.ar    1  UNL1       -0.0003
     47 C         142.6053  138.3309  165.3433 C.ar    1  UNL1       -0.0000
     48 C         142.3442  139.0426  164.0489 C.ar    1  UNL1       -0.0003
     49 C         141.9310  140.4845  164.0559 C.ar    1  UNL1       -0.0042
     50 C         137.8941  141.2757  162.0730 C.3     1  UNL1        0.0553
     51 C         138.2094  140.2268  163.0980 C.ar    1  UNL1       -0.0200
     52 C         138.1101  140.5520  164.5589 C.ar    1  UNL1       -0.0042
     53 C         138.4253  139.5031  165.5838 C.ar    1  UNL1       -0.0003
     54 C         138.8399  138.1291  165.1478 C.ar    1  UNL1       -0.0000
     55 C         138.9392  137.8039  163.6868 C.ar    1  UNL1       -0.0003
     56 C         138.6240  138.8528  162.6619 C.ar    1  UNL1       -0.0042
     57 C         139.0075  143.3719  156.5906 C.3     1  UNL1        0.0290
     58 C         140.3059  142.8158  156.0858 C.3     1  UNL1        0.0021
     59 C         140.3595  142.1259  154.7549 C.3     1  UNL1        0.0001
     60 C         141.5508  142.9494  156.9119 C.3     1  UNL1        0.0001
@<TRIPOS>BOND
     1    15    16    1
     2    16    17   am
     3    17    18    2
     4    17    19   am
     5    19     7    1
     6     7     8    1
     7     8     9    1
     8     9    10    1
     9    10    11   am
    10    11    12    2
    11    11     6    1
    12     6    22    1
    13    22    23    1
    14    23    24    1
    15    24    25    1
    16    25    26    1
    17     6     2    1
    18     2     3   am
    19     3     4    2
    20     3     1    1
    21     1    57    1
    22    57    58    1
    23    58    59    1
    24    58    60    1
    25     1    29    1
    26    29    30   am
    27    30    31    2
    28    30    33    1
    29    33    50    1
    30    50    51    1
    31    51    52   ar
    32    52    53   ar
    33    53    54   ar
    34    54    55   ar
    35    55    56   ar
    36    33    34    1
    37    34    35   am
    38    35    36    2
    39    35    38    1
    40    38    39    1
    41    39    41    1
    42    41    42    1
    43    42    43    1
    44    42    44    1
    45    44    45   ar
    46    45    46   ar
    47    46    47   ar
    48    47    48   ar
    49    48    49   ar
    50    10    13    1
    51    13    14    1
    52    14     7    1
    53    56    51   ar
    54    49    44   ar
    55    16    20    1
    56    19    21    1
    57    26    27    1
    58    26    28    1
    59     2     5    1
    60    29    32    1
    61    34    37    1
    62    39    40    1
@<TRIPOS>MOLECULE
*****
 60 62 0 0 0
SMALL
GASTEIGER

@<TRIPOS>ATOM
      1 C         140.6351  145.2440  156.4916 C.3     1  UNL1        0.1486
      2 N         142.8520  143.9793  156.0058 N.am    1  UNL1       -0.2970
      3 C         141.4003  144.2162  155.7118 C.2     1  UNL1        0.2406
      4 O         140.7138  143.4253  154.6379 O.2     1  UNL1       -0.2733
      5 H         143.3025  144.4984  156.7106 H       1  UNL1        0.1499
      6 C         143.6172  142.9514  155.2260 C.3     1  UNL1        0.1488
      7 C         143.3965  139.2457  159.1591 C.3     1  UNL1        0.0765
      8 C         142.9173  138.5600  157.9140 C.3     1  UNL1        0.0412
      9 C         142.8527  139.3150  156.6195 C.3     1  UNL1        0.0951
     10 N         143.2672  140.7557  156.5700 N.am    1  UNL1       -0.2781
     11 C         143.2026  141.5107  155.2755 C.2     1  UNL1        0.2435
     12 O         142.7234  140.8250  154.0305 O.2     1  UNL1       -0.2731
     13 C         143.7464  141.4414  157.8151 C.3     1  UNL1        0.0951
     14 C         143.8110  140.6863  159.1096 C.3     1  UNL1        0.0412
     15 C         141.0123  137.1861  163.2912 C.3     1  UNL1        0.1122
     16 N         142.2691  137.4609  162.5196 N.am    1  UNL1       -0.2872
     17 C         142.2044  138.2159  161.2251 C.2     1  UNL1        0.3008
     18 O         140.8831  138.6962  160.7021 O.2     1  UNL1       -0.2528
     19 N         143.4611  138.4906  160.4536 N.am    1  UNL1       -0.2905
     20 H         143.1363  137.1457  162.8629 H       1  UNL1        0.1510
     21 H         144.3283  138.1754  160.7968 H       1  UNL1        0.1509
     22 C         144.7969  143.3643  154.3968 C.3     1  UNL1        0.0290
     23 C         146.0504  142.5405  154.4132 C.3     1  UNL1        0.0036
     24 C         147.1647  142.8891  155.3550 C.3     1  UNL1        0.0169
     25 C         147.1022  142.4472  156.7870 C.3     1  UNL1        0.0651
     26 N         147.4712  143.4022  157.8834 N.3     1  UNL1       -0.3211
     27 H         148.4636  143.6282  157.8176 H       1  UNL1        0.1189
     28 H         147.2797  142.9716  158.7880 H       1  UNL1        0.1189
     29 N         140.0079  144.8762  157.8036 N.am    1  UNL1       -0.2970
     30 C         140.8359  144.8675  159.0544 C.2     1  UNL1        0.2410
     31 O         142.2910  145.2265  158.9932 O.2     1  UNL1       -0.2733
     32 H         139.0529  144.6406  157.8438 H       1  UNL1        0.1499
     33 C         140.2087  144.4997  160.3664 C.3     1  UNL1        0.1530
     34 N         139.1142  143.4750  160.4134 N.am    1  UNL1       -0.2969
     35 C         139.3318  142.1171  159.8145 C.2     1  UNL1        0.2389
     36 O         140.6439  141.7838  159.1686 O.2     1  UNL1       -0.2736
     37 H         138.2530  143.6937  160.8374 H       1  UNL1        0.1499
     38 C         138.2373  141.0925  159.8615 C.3     1  UNL1        0.1549
     39 N         138.1038  140.1918  161.0536 N.3     1  UNL1       -0.2895
     40 H         139.0497  139.9364  161.3371 H       1  UNL1        0.1237
     41 C         137.3989  140.6775  162.2853 C.3     1  UNL1        0.0733
     42 C         138.1146  140.6893  163.6035 C.3     1  UNL1        0.0381
     43 C         138.4279  139.3974  164.2985 C.3     1  UNL1        0.0061
     44 C         138.5169  141.9930  164.2268 C.ar    1  UNL1       -0.0212
     45 C         139.5624  142.0191  165.3022 C.ar    1  UNL1       -0.0042
     46 C         139.9648  143.3228  165.9255 C.ar    1  UNL1       -0.0003
     47 C         139.3216  144.6004  165.4734 C.ar    1  UNL1       -0.0000
     48 C         138.2762  144.5742  164.3981 C.ar    1  UNL1       -0.0003
     49 C         137.8738  143.2705  163.7748 C.ar    1  UNL1       -0.0042
     50 C         140.6760  145.1565  161.6314 C.3     1  UNL1        0.0553
     51 C         141.6308  144.4402  162.5399 C.ar    1  UNL1       -0.0200
     52 C         142.4544  145.2163  163.5245 C.ar    1  UNL1       -0.0042
     53 C         143.4091  144.5001  164.4330 C.ar    1  UNL1       -0.0003
     54 C         143.5403  143.0078  164.3570 C.ar    1  UNL1       -0.0000
     55 C         142.7167  142.2316  163.3724 C.ar    1  UNL1       -0.0003
     56 C         141.7619  142.9479  162.4639 C.ar    1  UNL1       -0.0042
     57 C         140.4971  146.6396  155.9594 C.3     1  UNL1        0.0290
     58 C         139.1658  147.1274  155.4700 C.3     1  UNL1        0.0021
     59 C         138.1296  146.1448  155.0107 C.3     1  UNL1        0.0001
     60 C         138.8706  148.5977  155.4398 C.3     1  UNL1        0.0001
@<TRIPOS>BOND
     1    15    16    1
     2    16    17   am
     3    17    18    2
     4    17    19   am
     5    19     7    1
     6     7     8    1
     7     8     9    1
     8     9    10    1
     9    10    11   am
    10    11    12    2
    11    11     6    1
    12     6    22    1
    13    22    23    1
    14    23    24    1
    15    24    25    1
    16    25    26    1
    17     6     2    1
    18     2     3   am
    19     3     4    2
    20     3     1    1
    21     1    57    1
    22    57    58    1
    23    58    59    1
    24    58    60    1
    25     1    29    1
    26    29    30   am
    27    30    31    2
    28    30    33    1
    29    33    50    1
    30    50    51    1
    31    51    52   ar
    32    52    53   ar
    33    53    54   ar
    34    54    55   ar
    35    55    56   ar
    36    33    34    1
    37    34    35   am
    38    35    36    2
    39    35    38    1
    40    38    39    1
    41    39    41    1
    42    41    42    1
    43    42    43    1
    44    42    44    1
    45    44    45   ar
    46    45    46   ar
    47    46    47   ar
    48    47    48   ar
    49    48    49   ar
    50    10    13    1
    51    13    14    1
    52    14     7    1
    53    56    51   ar
    54    49    44   ar
    55    16    20    1
    56    19    21    1
    57    26    27    1
    58    26    28    1
    59     2     5    1
    60    29    32    1
    61    34    37    1
    62    39    40    1
