@<TRIPOS>MOLECULE
*****
 34 37 0 0 0
SMALL
GASTEIGER

@<TRIPOS>ATOM
      1 N         141.5084  139.5816  161.0692 N.am    1  UNL1       -0.2611
      2 C         142.0311  140.9872  161.0971 C.3     1  UNL1        0.1165
      3 C         141.1180  138.9011  162.3477 C.2     1  UNL1        0.3079
      4 O         140.5953  137.4953  162.3198 O.2     1  UNL1       -0.2523
      5 N         141.2503  139.6263  163.6540 N.am    1  UNL1       -0.2538
      6 C         140.9016  139.0780  165.0061 C.3     1  UNL1        0.1221
      7 C         141.1903  140.1400  166.0254 C.2     1  UNL1       -0.0024
      8 C         141.7175  141.3445  165.3034 C.2     1  UNL1       -0.0044
      9 C         141.7546  141.0270  163.8378 C.3     1  UNL1        0.1264
     10 C         140.9793  136.6808  155.8437 C.3     1  UNL1        0.0897
     11 N         141.1115  137.4060  157.1501 N.3     1  UNL1       -0.2691
     12 C         142.4356  137.4483  157.8537 C.3     1  UNL1        0.0740
     13 C         142.5679  138.1734  159.1601 C.3     1  UNL1        0.0400
     14 C         141.3761  138.8564  159.7628 C.3     1  UNL1        0.1121
     15 C         140.0521  138.8142  159.0592 C.3     1  UNL1        0.1948
     16 F         138.8603  139.4971  159.6619 F       1  UNL1       -0.2340
     17 C         139.9198  138.0890  157.7528 C.3     1  UNL1        0.1095
     18 C         140.9875  140.0187  167.5066 C.ar    1  UNL1        0.0271
     19 C         139.6827  140.4308  168.1211 C.ar    1  UNL1        0.0316
     20 C         139.4799  140.3095  169.6024 C.ar    1  UNL1        0.1403
     21 F         138.1750  140.7216  170.2170 F       1  UNL1       -0.2042
     22 C         140.5818  139.7760  170.4691 C.ar    1  UNL1        0.0319
     23 C         141.8866  139.3639  169.8546 C.ar    1  UNL1        0.0319
     24 C         142.0894  139.4852  168.3734 C.ar    1  UNL1        0.1400
     25 F         143.3942  139.0731  167.7588 F       1  UNL1       -0.2042
     26 C         142.2900  142.4222  163.7096 C.ar    1  UNL1        0.0002
     27 C         143.7322  142.6431  163.3613 C.ar    1  UNL1       -0.0023
     28 C         144.2676  144.0384  163.2331 C.ar    1  UNL1       -0.0003
     29 C         143.3608  145.2128  163.4531 C.ar    1  UNL1       -0.0000
     30 C         141.9186  144.9920  163.8014 C.ar    1  UNL1       -0.0003
     31 C         141.3832  143.5967  163.9296 C.ar    1  UNL1       -0.0023
     32 C         141.9036  141.0011  162.3454 C.3     1  UNL1        0.1637
     33 O         140.9922  141.8265  161.4863 O.3     1  UNL1       -0.3796
     34 H         140.0845  141.4933  161.5646 H       1  UNL1        0.2105
@<TRIPOS>BOND
     1    10    11    1
     2    11    12    1
     3    12    13    1
     4    13    14    1
     5    14     1    1
     6     1     2    1
     7     1     3   am
     8     3     4    2
     9     3     5   am
    10     5     6    1
    11     6     7    1
    12     7    18    1
    13    18    19   ar
    14    19    20   ar
    15    20    21    1
    16    20    22   ar
    17    22    23   ar
    18    23    24   ar
    19    24    25    1
    20     7     8    2
    21     8     9    1
    22     9    32    1
    23    32    33    1
    24     9    26    1
    25    26    27   ar
    26    27    28   ar
    27    28    29   ar
    28    29    30   ar
    29    30    31   ar
    30    14    15    1
    31    15    16    1
    32    15    17    1
    33    17    11    1
    34     9     5    1
    35    31    26   ar
    36    24    18   ar
    37    33    34    1
@<TRIPOS>MOLECULE
*****
 34 37 0 0 0
SMALL
GASTEIGER

@<TRIPOS>ATOM
      1 N         142.7678  141.6082  161.6670 N.am    1  UNL1       -0.2611
      2 C         141.4653  142.3394  161.8036 C.3     1  UNL1        0.1165
      3 C         143.4208  141.0070  162.8761 C.2     1  UNL1        0.3079
      4 O         144.7234  140.2757  162.7395 O.2     1  UNL1       -0.2523
      5 N         142.7712  141.1369  164.2219 N.am    1  UNL1       -0.2538
      6 C         143.3028  140.5908  165.5140 C.3     1  UNL1        0.1221
      7 C         142.3361  140.9521  166.6025 C.2     1  UNL1       -0.0024
      8 C         141.2070  141.7214  165.9833 C.2     1  UNL1       -0.0044
      9 C         141.4760  141.8356  164.5120 C.3     1  UNL1        0.1264
     10 C         145.3662  141.0886  156.2838 C.3     1  UNL1        0.0897
     11 N         144.7166  141.2185  157.6296 N.3     1  UNL1       -0.2691
     12 C         144.9488  142.4465  158.4591 C.3     1  UNL1        0.0740
     13 C         144.2992  142.5764  159.8049 C.3     1  UNL1        0.0400
     14 C         143.4174  141.4783  160.3212 C.3     1  UNL1        0.1121
     15 C         143.1852  140.2504  159.4917 C.3     1  UNL1        0.1948
     16 F         142.3033  139.1522  160.0079 F       1  UNL1       -0.2340
     17 C         143.8348  140.1205  158.1459 C.3     1  UNL1        0.1095
     18 C         142.4742  140.6050  168.0552 C.ar    1  UNL1        0.0271
     19 C         142.6490  139.1745  168.4712 C.ar    1  UNL1        0.0316
     20 C         142.7871  138.8274  169.9239 C.ar    1  UNL1        0.1403
     21 F         142.9619  137.3968  170.3399 F       1  UNL1       -0.2042
     22 C         142.7505  139.9108  170.9607 C.ar    1  UNL1        0.0319
     23 C         142.5757  141.3413  170.5447 C.ar    1  UNL1        0.0319
     24 C         142.4376  141.6884  169.0920 C.ar    1  UNL1        0.1400
     25 F         142.2628  143.1190  168.6761 F       1  UNL1       -0.2042
     26 C         140.1803  142.5912  164.4937 C.ar    1  UNL1        0.0002
     27 C         140.1145  143.9807  165.0550 C.ar    1  UNL1       -0.0023
     28 C         138.8189  144.7363  165.0367 C.ar    1  UNL1       -0.0003
     29 C         137.5891  144.1025  164.4571 C.ar    1  UNL1       -0.0000
     30 C         137.6549  142.7130  163.8958 C.ar    1  UNL1       -0.0003
     31 C         138.9506  141.9574  163.9141 C.ar    1  UNL1       -0.0023
     32 C         141.4740  142.1077  163.0368 C.3     1  UNL1        0.1637
     33 O         141.6803  143.5050  162.5317 O.3     1  UNL1       -0.3796
     34 H         140.9311  144.0597  162.8001 H       1  UNL1        0.2105
@<TRIPOS>BOND
     1    10    11    1
     2    11    12    1
     3    12    13    1
     4    13    14    1
     5    14     1    1
     6     1     2    1
     7     1     3   am
     8     3     4    2
     9     3     5   am
    10     5     6    1
    11     6     7    1
    12     7    18    1
    13    18    19   ar
    14    19    20   ar
    15    20    21    1
    16    20    22   ar
    17    22    23   ar
    18    23    24   ar
    19    24    25    1
    20     7     8    2
    21     8     9    1
    22     9    32    1
    23    32    33    1
    24     9    26    1
    25    26    27   ar
    26    27    28   ar
    27    28    29   ar
    28    29    30   ar
    29    30    31   ar
    30    14    15    1
    31    15    16    1
    32    15    17    1
    33    17    11    1
    34     9     5    1
    35    31    26   ar
    36    24    18   ar
    37    33    34    1
@<TRIPOS>MOLECULE
*****
 34 37 0 0 0
SMALL
GASTEIGER

@<TRIPOS>ATOM
      1 N         139.6694  141.6729  161.0285 N.am    1  UNL1       -0.2611
      2 C         141.1680  141.6118  161.0066 C.3     1  UNL1        0.1165
      3 C         138.9416  141.7613  162.3371 C.2     1  UNL1        0.3079
      4 O         137.4429  141.8223  162.3591 O.2     1  UNL1       -0.2523
      5 N         139.7123  141.7887  163.6237 N.am    1  UNL1       -0.2538
      6 C         139.1253  141.8746  165.0014 C.3     1  UNL1        0.1221
      7 C         140.2556  141.8740  165.9876 C.2     1  UNL1       -0.0024
      8 C         141.5411  141.7877  165.2194 C.2     1  UNL1       -0.0044
      9 C         141.2053  141.7350  163.7584 C.3     1  UNL1        0.1264
     10 C         136.5866  141.5633  155.8823 C.3     1  UNL1        0.0897
     11 N         137.3573  141.5907  157.1688 N.3     1  UNL1       -0.2691
     12 C         138.0708  142.8414  157.5892 C.3     1  UNL1        0.0740
     13 C         138.8415  142.8687  158.8758 C.3     1  UNL1        0.0400
     14 C         138.8987  141.6455  159.7420 C.3     1  UNL1        0.1121
     15 C         138.1852  140.3948  159.3216 C.3     1  UNL1        0.1948
     16 F         138.2424  139.1715  160.1878 F       1  UNL1       -0.2340
     17 C         137.4145  140.3675  158.0350 C.3     1  UNL1        0.1095
     18 C         140.1235  141.9468  167.4800 C.ar    1  UNL1        0.0271
     19 C         140.3689  143.2440  168.1922 C.ar    1  UNL1        0.0316
     20 C         140.2369  143.3168  169.6846 C.ar    1  UNL1        0.1403
     21 F         140.4823  144.6140  170.3968 F       1  UNL1       -0.2042
     22 C         139.8593  142.0926  170.4648 C.ar    1  UNL1        0.0319
     23 C         139.6139  140.7955  169.7526 C.ar    1  UNL1        0.0319
     24 C         139.7460  140.7226  168.2602 C.ar    1  UNL1        0.1400
     25 F         139.5006  139.4255  167.5481 F       1  UNL1       -0.2042
     26 C         142.6930  141.6673  163.5799 C.ar    1  UNL1        0.0002
     27 C         143.4349  142.8423  163.0152 C.ar    1  UNL1       -0.0023
     28 C         144.9227  142.7746  162.8367 C.ar    1  UNL1       -0.0003
     29 C         145.6686  141.5319  163.2229 C.ar    1  UNL1       -0.0000
     30 C         144.9268  140.3568  163.7876 C.ar    1  UNL1       -0.0003
     31 C         143.4390  140.4245  163.9661 C.ar    1  UNL1       -0.0023
     32 C         141.1805  141.6681  162.2601 C.3     1  UNL1        0.1637
     33 O         141.5557  140.3957  161.5598 O.3     1  UNL1       -0.3796
     34 H         142.4941  140.2057  161.7153 H       1  UNL1        0.2105
@<TRIPOS>BOND
     1    10    11    1
     2    11    12    1
     3    12    13    1
     4    13    14    1
     5    14     1    1
     6     1     2    1
     7     1     3   am
     8     3     4    2
     9     3     5   am
    10     5     6    1
    11     6     7    1
    12     7    18    1
    13    18    19   ar
    14    19    20   ar
    15    20    21    1
    16    20    22   ar
    17    22    23   ar
    18    23    24   ar
    19    24    25    1
    20     7     8    2
    21     8     9    1
    22     9    32    1
    23    32    33    1
    24     9    26    1
    25    26    27   ar
    26    27    28   ar
    27    28    29   ar
    28    29    30   ar
    29    30    31   ar
    30    14    15    1
    31    15    16    1
    32    15    17    1
    33    17    11    1
    34     9     5    1
    35    31    26   ar
    36    24    18   ar
    37    33    34    1
@<TRIPOS>MOLECULE
*****
 34 37 0 0 0
SMALL
GASTEIGER

@<TRIPOS>ATOM
      1 N         140.6053  143.3769  160.4008 N.am    1  UNL1       -0.2611
      2 C         142.0575  143.1978  160.7309 C.3     1  UNL1        0.1165
      3 C         139.5541  142.9039  161.3607 C.2     1  UNL1        0.3079
      4 O         138.1018  143.0830  161.0306 O.2     1  UNL1       -0.2523
      5 N         139.9552  142.2517  162.6506 N.am    1  UNL1       -0.2538
      6 C         139.0216  141.7311  163.7030 C.3     1  UNL1        0.1221
      7 C         139.8498  141.1633  164.8174 C.2     1  UNL1       -0.0024
      8 C         141.2951  141.3330  164.4537 C.2     1  UNL1       -0.0044
      9 C         141.3603  142.0057  163.1146 C.3     1  UNL1        0.1264
     10 C         139.0009  145.9855  155.2413 C.3     1  UNL1        0.0897
     11 N         139.4020  145.3334  156.5312 N.3     1  UNL1       -0.2691
     12 C         140.0249  146.1515  157.6232 C.3     1  UNL1        0.0740
     13 C         140.4260  145.4993  158.9131 C.3     1  UNL1        0.0400
     14 C         140.2042  144.0291  159.1109 C.3     1  UNL1        0.1121
     15 C         139.5813  143.2110  158.0189 C.3     1  UNL1        0.1948
     16 F         139.3594  141.7407  158.2166 F       1  UNL1       -0.2340
     17 C         139.1802  143.8632  156.7290 C.3     1  UNL1        0.1095
     18 C         139.3247  140.5360  166.0746 C.ar    1  UNL1        0.0271
     19 C         138.3010  139.4424  165.9962 C.ar    1  UNL1        0.0316
     20 C         137.7759  138.8151  167.2534 C.ar    1  UNL1        0.1403
     21 F         136.7522  137.7214  167.1750 F       1  UNL1       -0.2042
     22 C         138.2745  139.2813  168.5891 C.ar    1  UNL1        0.0319
     23 C         139.2982  140.3748  168.6676 C.ar    1  UNL1        0.0319
     24 C         139.8233  141.0022  167.4103 C.ar    1  UNL1        0.1400
     25 F         140.8469  142.0957  167.4888 F       1  UNL1       -0.2042
     26 C         142.8437  141.8954  163.3071 C.ar    1  UNL1        0.0002
     27 C         143.6254  140.8704  162.5401 C.ar    1  UNL1       -0.0023
     28 C         145.1089  140.7601  162.7326 C.ar    1  UNL1       -0.0003
     29 C         145.8107  141.6750  163.6920 C.ar    1  UNL1       -0.0000
     30 C         145.0291  142.7000  164.4590 C.ar    1  UNL1       -0.0003
     31 C         143.5456  142.8103  164.2665 C.ar    1  UNL1       -0.0023
     32 C         141.7356  142.6553  161.8157 C.3     1  UNL1        0.1637
     33 O         142.3853  144.0073  161.8135 O.3     1  UNL1       -0.3796
     34 H         141.7594  144.6674  162.1502 H       1  UNL1        0.2105
@<TRIPOS>BOND
     1    10    11    1
     2    11    12    1
     3    12    13    1
     4    13    14    1
     5    14     1    1
     6     1     2    1
     7     1     3   am
     8     3     4    2
     9     3     5   am
    10     5     6    1
    11     6     7    1
    12     7    18    1
    13    18    19   ar
    14    19    20   ar
    15    20    21    1
    16    20    22   ar
    17    22    23   ar
    18    23    24   ar
    19    24    25    1
    20     7     8    2
    21     8     9    1
    22     9    32    1
    23    32    33    1
    24     9    26    1
    25    26    27   ar
    26    27    28   ar
    27    28    29   ar
    28    29    30   ar
    29    30    31   ar
    30    14    15    1
    31    15    16    1
    32    15    17    1
    33    17    11    1
    34     9     5    1
    35    31    26   ar
    36    24    18   ar
    37    33    34    1
@<TRIPOS>MOLECULE
*****
 34 37 0 0 0
SMALL
GASTEIGER

@<TRIPOS>ATOM
      1 N         142.5894  140.9961  160.6788 N.am    1  UNL1       -0.2611
      2 C         141.3504  141.8391  160.7439 C.3     1  UNL1        0.1165
      3 C         143.2608  140.5507  161.9440 C.2     1  UNL1        0.3079
      4 O         144.4998  139.7076  161.8789 O.2     1  UNL1       -0.2523
      5 N         142.6932  140.9483  163.2743 N.am    1  UNL1       -0.2538
      6 C         143.2520  140.5802  164.6169 C.3     1  UNL1        0.1221
      7 C         142.3713  141.1883  165.6680 C.2     1  UNL1       -0.0024
      8 C         141.2683  141.9321  164.9751 C.2     1  UNL1       -0.0044
      9 C         141.4673  141.7838  163.4957 C.3     1  UNL1        0.1264
     10 C         144.8597  139.4056  155.3575 C.3     1  UNL1        0.0897
     11 N         144.2921  139.8032  156.6878 N.3     1  UNL1       -0.2691
     12 C         143.2131  138.9754  157.3205 C.3     1  UNL1        0.0740
     13 C         142.6455  139.3730  158.6509 C.3     1  UNL1        0.0400
     14 C         143.1570  140.5984  159.3484 C.3     1  UNL1        0.1121
     15 C         144.2359  141.4263  158.7157 C.3     1  UNL1        0.1948
     16 F         144.7474  142.6518  159.4133 F       1  UNL1       -0.2340
     17 C         144.8035  141.0286  157.3854 C.3     1  UNL1        0.1095
     18 C         142.5604  141.0727  167.1515 C.ar    1  UNL1        0.0271
     19 C         142.6881  142.3099  167.9899 C.ar    1  UNL1        0.0316
     20 C         142.8773  142.1944  169.4734 C.ar    1  UNL1        0.1403
     21 F         143.0050  143.4316  170.3119 F       1  UNL1       -0.2042
     22 C         142.9388  140.8416  170.1185 C.ar    1  UNL1        0.0319
     23 C         142.8111  139.6043  169.2801 C.ar    1  UNL1        0.0319
     24 C         142.6219  139.7199  167.7966 C.ar    1  UNL1        0.1400
     25 F         142.4942  138.4827  166.9582 F       1  UNL1       -0.2042
     26 C         140.2288  142.6251  163.4038 C.ar    1  UNL1        0.0002
     27 C         140.2838  144.0818  163.7572 C.ar    1  UNL1       -0.0023
     28 C         139.0454  144.9231  163.6653 C.ar    1  UNL1       -0.0003
     29 C         137.7519  144.3076  163.2200 C.ar    1  UNL1       -0.0000
     30 C         137.6969  142.8509  162.8666 C.ar    1  UNL1       -0.0003
     31 C         138.9354  142.0096  162.9585 C.ar    1  UNL1       -0.0023
     32 C         141.4073  141.8114  161.9971 C.3     1  UNL1        0.1637
     33 O         141.7069  143.0817  161.2578 O.3     1  UNL1       -0.3796
     34 H         141.0253  143.7417  161.4597 H       1  UNL1        0.2105
@<TRIPOS>BOND
     1    10    11    1
     2    11    12    1
     3    12    13    1
     4    13    14    1
     5    14     1    1
     6     1     2    1
     7     1     3   am
     8     3     4    2
     9     3     5   am
    10     5     6    1
    11     6     7    1
    12     7    18    1
    13    18    19   ar
    14    19    20   ar
    15    20    21    1
    16    20    22   ar
    17    22    23   ar
    18    23    24   ar
    19    24    25    1
    20     7     8    2
    21     8     9    1
    22     9    32    1
    23    32    33    1
    24     9    26    1
    25    26    27   ar
    26    27    28   ar
    27    28    29   ar
    28    29    30   ar
    29    30    31   ar
    30    14    15    1
    31    15    16    1
    32    15    17    1
    33    17    11    1
    34     9     5    1
    35    31    26   ar
    36    24    18   ar
    37    33    34    1
@<TRIPOS>MOLECULE
*****
 34 37 0 0 0
SMALL
GASTEIGER

@<TRIPOS>ATOM
      1 N         141.0150  139.5912  160.6015 N.am    1  UNL1       -0.2611
      2 C         140.8769  141.0822  160.5127 C.3     1  UNL1        0.1165
      3 C         141.0873  138.9233  161.9427 C.2     1  UNL1        0.3079
      4 O         141.2254  137.4323  162.0315 O.2     1  UNL1       -0.2523
      5 N         141.0215  139.7464  163.1949 N.am    1  UNL1       -0.2538
      6 C         141.0811  139.2218  164.5990 C.3     1  UNL1        0.1221
      7 C         140.9810  140.3898  165.5348 C.2     1  UNL1       -0.0024
      8 C         140.8596  141.6362  164.7092 C.2     1  UNL1       -0.0044
      9 C         140.8846  141.2386  163.2631 C.3     1  UNL1        0.1264
     10 C         141.2781  136.2989  155.5924 C.3     1  UNL1        0.0897
     11 N         141.2123  137.1220  156.8447 N.3     1  UNL1       -0.2691
     12 C         139.9016  137.6921  157.2995 C.3     1  UNL1        0.0740
     13 C         139.8358  138.5152  158.5518 C.3     1  UNL1        0.0400
     14 C         141.0808  138.7681  159.3492 C.3     1  UNL1        0.1121
     15 C         142.3915  138.1980  158.8944 C.3     1  UNL1        0.1948
     16 F         143.6366  138.4510  159.6919 F       1  UNL1       -0.2340
     17 C         142.4573  137.3749  157.6422 C.3     1  UNL1        0.1095
     18 C         140.9992  140.3230  167.0332 C.ar    1  UNL1        0.0271
     19 C         142.2768  140.5697  167.7795 C.ar    1  UNL1        0.0316
     20 C         142.2949  140.5029  169.2779 C.ar    1  UNL1        0.1403
     21 F         143.5726  140.7497  170.0242 F       1  UNL1       -0.2042
     22 C         141.0356  140.1894  170.0300 C.ar    1  UNL1        0.0319
     23 C         139.7580  139.9427  169.2838 C.ar    1  UNL1        0.0319
     24 C         139.7398  140.0095  167.7854 C.ar    1  UNL1        0.1400
     25 F         138.4622  139.7628  167.0391 F       1  UNL1       -0.2042
     26 C         140.7469  142.7120  163.0182 C.ar    1  UNL1        0.0002
     27 C         141.9019  143.6290  163.2922 C.ar    1  UNL1       -0.0023
     28 C         141.7642  145.1024  163.0473 C.ar    1  UNL1       -0.0003
     29 C         140.4714  145.6589  162.5285 C.ar    1  UNL1       -0.0000
     30 C         139.3164  144.7419  162.2545 C.ar    1  UNL1       -0.0003
     31 C         139.4541  143.2685  162.4994 C.ar    1  UNL1       -0.0023
     32 C         140.8808  141.1490  161.7657 C.3     1  UNL1        0.1637
     33 O         142.0527  141.6596  160.9809 O.3     1  UNL1       -0.3796
     34 H         142.1176  142.6217  161.0858 H       1  UNL1        0.2105
@<TRIPOS>BOND
     1    10    11    1
     2    11    12    1
     3    12    13    1
     4    13    14    1
     5    14     1    1
     6     1     2    1
     7     1     3   am
     8     3     4    2
     9     3     5   am
    10     5     6    1
    11     6     7    1
    12     7    18    1
    13    18    19   ar
    14    19    20   ar
    15    20    21    1
    16    20    22   ar
    17    22    23   ar
    18    23    24   ar
    19    24    25    1
    20     7     8    2
    21     8     9    1
    22     9    32    1
    23    32    33    1
    24     9    26    1
    25    26    27   ar
    26    27    28   ar
    27    28    29   ar
    28    29    30   ar
    29    30    31   ar
    30    14    15    1
    31    15    16    1
    32    15    17    1
    33    17    11    1
    34     9     5    1
    35    31    26   ar
    36    24    18   ar
    37    33    34    1
@<TRIPOS>MOLECULE
*****
 34 37 0 0 0
SMALL
GASTEIGER

@<TRIPOS>ATOM
      1 N         140.5779  143.2771  160.3463 N.am    1  UNL1       -0.2611
      2 C         142.0318  143.1359  160.6868 C.3     1  UNL1        0.1165
      3 C         139.5322  142.7972  161.3086 C.2     1  UNL1        0.3079
      4 O         138.0781  142.9384  160.9680 O.2     1  UNL1       -0.2523
      5 N         139.9404  142.1759  162.6114 N.am    1  UNL1       -0.2538
      6 C         139.0127  141.6525  163.6676 C.3     1  UNL1        0.1221
      7 C         139.8470  141.1221  164.7958 C.2     1  UNL1       -0.0024
      8 C         141.2902  141.3177  164.4368 C.2     1  UNL1       -0.0044
      9 C         141.3479  141.9690  163.0868 C.3     1  UNL1        0.1264
     10 C         138.9449  145.7621  155.1349 C.3     1  UNL1        0.0897
     11 N         139.3532  145.1409  156.4377 N.3     1  UNL1       -0.2691
     12 C         139.1159  143.6795  156.6787 C.3     1  UNL1        0.0740
     13 C         139.5242  143.0583  157.9816 C.3     1  UNL1        0.0400
     14 C         140.1696  143.8984  159.0434 C.3     1  UNL1        0.1121
     15 C         140.4069  145.3597  158.8024 C.3     1  UNL1        0.1948
     16 F         141.0524  146.1999  159.8643 F       1  UNL1       -0.2340
     17 C         139.9986  145.9810  157.4996 C.3     1  UNL1        0.1095
     18 C         139.3290  140.5046  166.0608 C.ar    1  UNL1        0.0271
     19 C         139.8399  140.9766  167.3897 C.ar    1  UNL1        0.0316
     20 C         139.3218  140.3591  168.6547 C.ar    1  UNL1        0.1403
     21 F         139.8328  140.8311  169.9838 F       1  UNL1       -0.2042
     22 C         138.2928  139.2695  168.5908 C.ar    1  UNL1        0.0319
     23 C         137.7819  138.7975  167.2619 C.ar    1  UNL1        0.0319
     24 C         138.3000  139.4150  165.9969 C.ar    1  UNL1        0.1400
     25 F         137.7890  138.9430  164.6679 F       1  UNL1       -0.2042
     26 C         142.8324  141.8949  163.2888 C.ar    1  UNL1        0.0002
     27 C         143.6387  140.8646  162.5551 C.ar    1  UNL1       -0.0023
     28 C         145.1231  140.7905  162.7570 C.ar    1  UNL1       -0.0003
     29 C         145.8014  141.7469  163.6927 C.ar    1  UNL1       -0.0000
     30 C         144.9951  142.7772  164.4264 C.ar    1  UNL1       -0.0003
     31 C         143.5107  142.8513  164.2244 C.ar    1  UNL1       -0.0023
     32 C         141.7160  142.6048  161.7790 C.3     1  UNL1        0.1637
     33 O         142.3473  143.9653  161.7578 O.3     1  UNL1       -0.3796
     34 H         141.7120  144.6216  162.0843 H       1  UNL1        0.2105
@<TRIPOS>BOND
     1    10    11    1
     2    11    12    1
     3    12    13    1
     4    13    14    1
     5    14     1    1
     6     1     2    1
     7     1     3   am
     8     3     4    2
     9     3     5   am
    10     5     6    1
    11     6     7    1
    12     7    18    1
    13    18    19   ar
    14    19    20   ar
    15    20    21    1
    16    20    22   ar
    17    22    23   ar
    18    23    24   ar
    19    24    25    1
    20     7     8    2
    21     8     9    1
    22     9    32    1
    23    32    33    1
    24     9    26    1
    25    26    27   ar
    26    27    28   ar
    27    28    29   ar
    28    29    30   ar
    29    30    31   ar
    30    14    15    1
    31    15    16    1
    32    15    17    1
    33    17    11    1
    34     9     5    1
    35    31    26   ar
    36    24    18   ar
    37    33    34    1
@<TRIPOS>MOLECULE
*****
 34 37 0 0 0
SMALL
GASTEIGER

@<TRIPOS>ATOM
      1 N         140.8838  143.1761  161.1740 N.am    1  UNL1       -0.2611
      2 C         142.3005  142.7112  161.3379 C.3     1  UNL1        0.1165
      3 C         139.9288  143.0923  162.3276 C.2     1  UNL1        0.3079
      4 O         138.5120  143.5572  162.1637 O.2     1  UNL1       -0.2523
      5 N         140.3904  142.5435  163.6451 N.am    1  UNL1       -0.2538
      6 C         139.5538  142.3989  164.8818 C.3     1  UNL1        0.1221
      7 C         140.4160  141.8090  165.9582 C.2     1  UNL1       -0.0024
      8 C         141.7854  141.5890  165.3868 C.2     1  UNL1       -0.0044
      9 C         141.7695  142.0429  163.9572 C.3     1  UNL1        0.1264
     10 C         139.0374  145.3712  155.9041 C.3     1  UNL1        0.0897
     11 N         139.4990  144.8225  157.2216 N.3     1  UNL1       -0.2691
     12 C         140.2668  145.6949  158.1698 C.3     1  UNL1        0.0740
     13 C         140.7284  145.1461  159.4873 C.3     1  UNL1        0.0400
     14 C         140.4222  143.7249  159.8565 C.3     1  UNL1        0.1121
     15 C         139.6544  142.8525  158.9083 C.3     1  UNL1        0.1948
     16 F         139.3481  141.4312  159.2774 F       1  UNL1       -0.2340
     17 C         139.1928  143.4013  157.5908 C.3     1  UNL1        0.1095
     18 C         139.9846  141.4943  167.3599 C.ar    1  UNL1        0.0271
     19 C         140.1975  142.4987  168.4535 C.ar    1  UNL1        0.0316
     20 C         139.7660  142.1840  169.8552 C.ar    1  UNL1        0.1403
     21 F         139.9790  143.1885  170.9488 F       1  UNL1       -0.2042
     22 C         139.1217  140.8650  170.1634 C.ar    1  UNL1        0.0319
     23 C         138.9087  139.8606  169.0698 C.ar    1  UNL1        0.0319
     24 C         139.3402  140.1753  167.6681 C.ar    1  UNL1        0.1400
     25 F         139.1273  139.1709  166.5746 F       1  UNL1       -0.2042
     26 C         143.2082  141.6188  163.9711 C.ar    1  UNL1        0.0002
     27 C         143.5602  140.1639  164.0682 C.ar    1  UNL1       -0.0023
     28 C         144.9989  139.7397  164.0820 C.ar    1  UNL1       -0.0003
     29 C         146.0856  140.7704  163.9988 C.ar    1  UNL1       -0.0000
     30 C         145.7335  142.2253  163.9017 C.ar    1  UNL1       -0.0003
     31 C         144.2948  142.6495  163.8879 C.ar    1  UNL1       -0.0023
     32 C         142.0544  142.4082  162.5305 C.3     1  UNL1        0.1637
     33 O         142.2660  141.3309  161.5084 O.3     1  UNL1       -0.3796
     34 H         143.0782  140.8430  161.7163 H       1  UNL1        0.2105
@<TRIPOS>BOND
     1    10    11    1
     2    11    12    1
     3    12    13    1
     4    13    14    1
     5    14     1    1
     6     1     2    1
     7     1     3   am
     8     3     4    2
     9     3     5   am
    10     5     6    1
    11     6     7    1
    12     7    18    1
    13    18    19   ar
    14    19    20   ar
    15    20    21    1
    16    20    22   ar
    17    22    23   ar
    18    23    24   ar
    19    24    25    1
    20     7     8    2
    21     8     9    1
    22     9    32    1
    23    32    33    1
    24     9    26    1
    25    26    27   ar
    26    27    28   ar
    27    28    29   ar
    28    29    30   ar
    29    30    31   ar
    30    14    15    1
    31    15    16    1
    32    15    17    1
    33    17    11    1
    34     9     5    1
    35    31    26   ar
    36    24    18   ar
    37    33    34    1
@<TRIPOS>MOLECULE
*****
 34 37 0 0 0
SMALL
GASTEIGER

@<TRIPOS>ATOM
      1 N         141.1604  142.8680  161.3001 N.am    1  UNL1       -0.2611
      2 C         140.8728  141.3959  161.3031 C.3     1  UNL1        0.1165
      3 C         141.3743  143.5930  162.5957 C.2     1  UNL1        0.3079
      4 O         141.6619  145.0652  162.5928 O.2     1  UNL1       -0.2523
      5 N         141.3006  142.8458  163.8943 N.am    1  UNL1       -0.2538
      6 C         141.4916  143.4329  165.2614 C.3     1  UNL1        0.1221
      7 C         141.3320  142.3302  166.2658 C.2     1  UNL1       -0.0024
      8 C         141.0425  141.0617  165.5194 C.2     1  UNL1       -0.0044
      9 C         141.0231  141.3804  164.0538 C.3     1  UNL1        0.1264
     10 C         141.4551  145.8568  156.1058 C.3     1  UNL1        0.0897
     11 N         141.3814  145.1096  157.4044 N.3     1  UNL1       -0.2691
     12 C         140.1469  145.1984  158.2518 C.3     1  UNL1        0.0740
     13 C         140.0733  144.4512  159.5504 C.3     1  UNL1        0.0400
     14 C         141.2341  143.6152  160.0015 C.3     1  UNL1        0.1121
     15 C         142.4686  143.5264  159.1541 C.3     1  UNL1        0.1948
     16 F         143.6295  142.6904  159.6053 F       1  UNL1       -0.2340
     17 C         142.5422  144.2736  157.8556 C.3     1  UNL1        0.1095
     18 C         141.4426  142.4714  167.7550 C.ar    1  UNL1        0.0271
     19 C         140.2025  142.5656  168.5935 C.ar    1  UNL1        0.0316
     20 C         140.3131  142.7067  170.0828 C.ar    1  UNL1        0.1403
     21 F         139.0729  142.8010  170.9214 F       1  UNL1       -0.2042
     22 C         141.6638  142.7537  170.7335 C.ar    1  UNL1        0.0319
     23 C         142.9039  142.6595  169.8949 C.ar    1  UNL1        0.0319
     24 C         142.7934  142.5183  168.4057 C.ar    1  UNL1        0.1400
     25 F         144.0335  142.4241  167.5671 F       1  UNL1       -0.2042
     26 C         140.7286  139.9176  163.9002 C.ar    1  UNL1        0.0002
     27 C         139.3788  139.3810  164.2742 C.ar    1  UNL1       -0.0023
     28 C         139.0843  137.9183  164.1206 C.ar    1  UNL1       -0.0003
     29 C         140.1397  136.9921  163.5929 C.ar    1  UNL1       -0.0000
     30 C         141.4895  137.5287  163.2188 C.ar    1  UNL1       -0.0003
     31 C         141.7840  138.9915  163.3725 C.ar    1  UNL1       -0.0023
     32 C         140.9421  141.3932  162.5560 C.3     1  UNL1        0.1637
     33 O         139.6222  141.1854  161.8744 O.3     1  UNL1       -0.3796
     34 H         139.3079  140.2839  162.0463 H       1  UNL1        0.2105
@<TRIPOS>BOND
     1    10    11    1
     2    11    12    1
     3    12    13    1
     4    13    14    1
     5    14     1    1
     6     1     2    1
     7     1     3   am
     8     3     4    2
     9     3     5   am
    10     5     6    1
    11     6     7    1
    12     7    18    1
    13    18    19   ar
    14    19    20   ar
    15    20    21    1
    16    20    22   ar
    17    22    23   ar
    18    23    24   ar
    19    24    25    1
    20     7     8    2
    21     8     9    1
    22     9    32    1
    23    32    33    1
    24     9    26    1
    25    26    27   ar
    26    27    28   ar
    27    28    29   ar
    28    29    30   ar
    29    30    31   ar
    30    14    15    1
    31    15    16    1
    32    15    17    1
    33    17    11    1
    34     9     5    1
    35    31    26   ar
    36    24    18   ar
    37    33    34    1
