@<TRIPOS>MOLECULE
*****
 44 48 0 0 0
SMALL
GASTEIGER

@<TRIPOS>ATOM
      1 C         139.7299  142.7729  159.4937 C.3     1  UNL1        0.1287
      2 C         140.4449  143.2713  163.2760 C.ar    1  UNL1        0.0814
      3 C         139.3132  144.2330  163.0658 C.ar    1  UNL1        0.1173
      4 N         138.9075  144.1634  161.6234 N.ar    1  UNL1       -0.2279
      5 C         139.7886  143.1586  160.9421 C.ar    1  UNL1        0.1351
      6 N         140.7388  142.6072  161.9636 N.ar    1  UNL1       -0.3393
      7 H         141.4334  141.9286  161.8010 H       1  UNL1        0.1671
      8 C         142.6162  142.6678  164.5688 C.ar    1  UNL1        0.2262
      9 N         143.3290  142.4145  165.8641 N.ar    1  UNL1       -0.2116
     10 C         142.5833  142.5114  167.1620 C.ar    1  UNL1        0.0844
     11 C         143.2961  142.2581  168.4572 C.ar    1  UNL1        0.0192
     12 C         142.5503  142.3550  169.7551 C.ar    1  UNL1        0.0015
     13 C         141.0918  142.7052  169.7577 C.ar    1  UNL1        0.0001
     14 C         140.3790  142.9585  168.4624 C.ar    1  UNL1        0.0015
     15 C         141.1247  142.8616  167.1646 C.ar    1  UNL1        0.0180
     16 C         140.4119  143.1149  165.8692 C.ar    1  UNL1        0.0076
     17 C         141.1577  143.0180  164.5714 C.ar    1  UNL1        0.0703
     18 C         144.1374  143.7496  162.7616 C.3     1  UNL1        0.2542
     19 O         143.3620  142.5709  163.2709 O.3     1  UNL1       -0.4561
     20 N         140.9903  142.7089  158.6829 N.am    1  UNL1       -0.2956
     21 C         141.9106  141.5323  158.8190 C.2     1  UNL1        0.2537
     22 O         141.5707  140.4197  159.7658 O.2     1  UNL1       -0.2695
     23 H         141.2134  143.4391  158.0614 H       1  UNL1        0.1501
     24 C         143.1709  141.4683  158.0082 C.ar    1  UNL1        0.1033
     25 C         144.1322  140.3178  157.9622 C.ar    1  UNL1        0.1105
     26 N         145.2467  140.6820  157.0266 N.ar    1  UNL1       -0.2346
     27 C         144.9742  142.0575  156.4943 C.ar    1  UNL1        0.1347
     28 S         143.6913  142.5436  157.1010 S.2     1  UNL1       -0.0599
     29 C         138.4108  142.4512  158.8562 C.3     1  UNL1        0.0274
     30 C         138.0177  141.0220  158.6262 C.3     1  UNL1        0.0039
     31 C         138.2200  140.0048  159.7098 C.3     1  UNL1        0.0213
     32 C         137.3654  140.0416  160.9421 C.3     1  UNL1        0.0897
     33 N         138.0002  140.2140  162.2902 N.am    1  UNL1       -0.3009
     34 C         138.4849  139.0148  163.0498 C.2     1  UNL1        0.2463
     35 O         138.3347  137.6433  162.4614 O.2     1  UNL1       -0.2701
     36 H         138.0988  141.1142  162.6764 H       1  UNL1        0.1497
     37 C         139.1197  139.1872  164.3978 C.ar    1  UNL1        0.0590
     38 C         138.2609  139.2966  165.6228 C.ar    1  UNL1        0.0050
     39 C         138.8958  139.4690  166.9709 C.ar    1  UNL1        0.0002
     40 C         140.3893  139.5321  167.0940 C.ar    1  UNL1        0.0005
     41 C         141.2481  139.4228  165.8690 C.ar    1  UNL1        0.0063
     42 C         140.6132  139.2503  164.5209 C.ar    1  UNL1        0.0296
     43 S         141.4720  139.1410  163.2959 S.3     1  UNL1       -0.1126
     44 C         141.9271  137.7943  162.8168 C.3     1  UNL1        0.0742
@<TRIPOS>BOND
     1    18    19    1
     2    19     8    1
     3     8     9   ar
     4     9    10   ar
     5    10    11   ar
     6    11    12   ar
     7    12    13   ar
     8    13    14   ar
     9    14    15   ar
    10    15    16   ar
    11    16    17   ar
    12    17     2    1
    13     2     3   ar
    14     3     4   ar
    15     4     5   ar
    16     5     1    1
    17     1    29    1
    18    29    30    1
    19    30    31    1
    20    31    32    1
    21    32    33    1
    22    33    34   am
    23    34    35    2
    24    34    37    1
    25    37    38   ar
    26    38    39   ar
    27    39    40   ar
    28    40    41   ar
    29    41    42   ar
    30    42    43    1
    31    43    44    1
    32     1    20    1
    33    20    21   am
    34    21    22    2
    35    21    24    1
    36    24    25   ar
    37    25    26   ar
    38    26    27   ar
    39    27    28   ar
    40     5     6   ar
    41    17     8   ar
    42     6     2   ar
    43    15    10   ar
    44    42    37   ar
    45    28    24   ar
    46    33    36    1
    47    20    23    1
    48     6     7    1
@<TRIPOS>MOLECULE
*****
 44 48 0 0 0
SMALL
GASTEIGER

@<TRIPOS>ATOM
      1 C         138.4006  141.5652  160.6428 C.3     1  UNL1        0.1287
      2 C         138.9932  141.5766  164.4787 C.ar    1  UNL1        0.0814
      3 C         137.7401  142.3947  164.3766 C.ar    1  UNL1        0.1173
      4 N         137.3656  142.4900  162.9272 N.ar    1  UNL1       -0.2279
      5 C         138.3873  141.7308  162.1335 C.ar    1  UNL1        0.1351
      6 N         139.3932  141.1662  163.0925 N.ar    1  UNL1       -0.3393
      7 H         140.1781  140.6219  162.8539 H       1  UNL1        0.1671
      8 C         139.2608  140.0696  166.5781 C.ar    1  UNL1        0.2262
      9 N         139.9865  139.7226  167.8442 N.ar    1  UNL1       -0.2116
     10 C         141.1704  140.5357  168.2770 C.ar    1  UNL1        0.0844
     11 C         141.8961  140.1888  169.5431 C.ar    1  UNL1        0.0192
     12 C         143.0800  141.0018  169.9758 C.ar    1  UNL1        0.0015
     13 C         143.5382  142.1619  169.1425 C.ar    1  UNL1        0.0001
     14 C         142.8125  142.5088  167.8764 C.ar    1  UNL1        0.0015
     15 C         141.6286  141.6958  167.4437 C.ar    1  UNL1        0.0180
     16 C         140.9028  142.0427  166.1776 C.ar    1  UNL1        0.0076
     17 C         139.7190  141.2296  165.7448 C.ar    1  UNL1        0.0703
     18 C         137.4391  138.2926  167.1014 C.3     1  UNL1        0.2542
     19 O         138.0768  139.2565  166.1453 O.3     1  UNL1       -0.4561
     20 N         138.9021  142.6766  159.7692 N.am    1  UNL1       -0.2956
     21 C         140.3455  143.0812  159.8246 C.2     1  UNL1        0.2537
     22 O         141.2873  142.3743  160.7537 O.2     1  UNL1       -0.2695
     23 H         138.2840  143.1405  159.1594 H       1  UNL1        0.1501
     24 C         140.8470  144.1925  158.9510 C.ar    1  UNL1        0.1033
     25 C         142.2055  144.8246  159.0212 C.ar    1  UNL1        0.1105
     26 N         142.2762  145.8898  157.9674 N.ar    1  UNL1       -0.2346
     27 C         140.9614  145.9160  157.2460 C.ar    1  UNL1        0.1347
     28 S         140.0780  144.8670  157.8539 S.2     1  UNL1       -0.0599
     29 C         137.9125  140.2881  160.0257 C.3     1  UNL1        0.0274
     30 C         138.5671  139.7564  158.7852 C.3     1  UNL1        0.0039
     31 C         139.7146  138.7967  158.8952 C.3     1  UNL1        0.0213
     32 C         141.0709  139.2926  159.3012 C.3     1  UNL1        0.0897
     33 N         141.3993  139.4743  160.7534 N.am    1  UNL1       -0.3009
     34 C         142.3887  138.5637  161.4182 C.2     1  UNL1        0.2463
     35 O         143.0496  137.4714  160.6308 O.2     1  UNL1       -0.2701
     36 H         140.9656  140.1912  161.2703 H       1  UNL1        0.1497
     37 C         142.7172  138.7454  162.8705 C.ar    1  UNL1        0.0590
     38 C         141.9537  137.9837  163.9131 C.ar    1  UNL1        0.0050
     39 C         142.2822  138.1655  165.3654 C.ar    1  UNL1        0.0002
     40 C         143.3741  139.1089  165.7751 C.ar    1  UNL1        0.0005
     41 C         144.1375  139.8706  164.7324 C.ar    1  UNL1        0.0063
     42 C         143.8090  139.6888  163.2801 C.ar    1  UNL1        0.0296
     43 S         144.5724  140.4505  162.2375 S.3     1  UNL1       -0.1126
     44 C         144.4857  141.9472  162.1883 C.3     1  UNL1        0.0742
@<TRIPOS>BOND
     1    18    19    1
     2    19     8    1
     3     8     9   ar
     4     9    10   ar
     5    10    11   ar
     6    11    12   ar
     7    12    13   ar
     8    13    14   ar
     9    14    15   ar
    10    15    16   ar
    11    16    17   ar
    12    17     2    1
    13     2     3   ar
    14     3     4   ar
    15     4     5   ar
    16     5     1    1
    17     1    29    1
    18    29    30    1
    19    30    31    1
    20    31    32    1
    21    32    33    1
    22    33    34   am
    23    34    35    2
    24    34    37    1
    25    37    38   ar
    26    38    39   ar
    27    39    40   ar
    28    40    41   ar
    29    41    42   ar
    30    42    43    1
    31    43    44    1
    32     1    20    1
    33    20    21   am
    34    21    22    2
    35    21    24    1
    36    24    25   ar
    37    25    26   ar
    38    26    27   ar
    39    27    28   ar
    40     5     6   ar
    41    17     8   ar
    42     6     2   ar
    43    15    10   ar
    44    42    37   ar
    45    28    24   ar
    46    33    36    1
    47    20    23    1
    48     6     7    1
@<TRIPOS>MOLECULE
*****
 44 48 0 0 0
SMALL
GASTEIGER

@<TRIPOS>ATOM
      1 C         142.4196  142.9377  159.7674 C.3     1  UNL1        0.1287
      2 C         143.0850  142.3587  163.5473 C.ar    1  UNL1        0.0814
      3 C         143.8069  143.6539  163.3210 C.ar    1  UNL1        0.1173
      4 N         143.6454  144.0285  161.8776 N.ar    1  UNL1       -0.2279
      5 C         142.8238  142.9647  161.2117 C.ar    1  UNL1        0.1351
      6 N         142.4775  141.9327  162.2437 N.ar    1  UNL1       -0.3393
      7 H         141.9449  141.1186  162.0921 H       1  UNL1        0.1671
      8 C         142.7572  140.1370  164.8537 C.ar    1  UNL1        0.2262
      9 N         142.6600  139.3974  166.1550 N.ar    1  UNL1       -0.2116
     10 C         142.7933  140.1400  167.4515 C.ar    1  UNL1        0.0844
     11 C         142.6960  139.4005  168.7529 C.ar    1  UNL1        0.0192
     12 C         142.8294  140.1431  170.0493 C.ar    1  UNL1        0.0015
     13 C         143.0599  141.6253  170.0443 C.ar    1  UNL1        0.0001
     14 C         143.1572  142.3648  168.7430 C.ar    1  UNL1        0.0015
     15 C         143.0239  141.6222  167.4466 C.ar    1  UNL1        0.0180
     16 C         143.1211  142.3617  166.1452 C.ar    1  UNL1        0.0076
     17 C         142.9878  141.6191  164.8488 C.ar    1  UNL1        0.0703
     18 C         141.6524  138.2574  163.4406 C.3     1  UNL1        0.2542
     19 O         142.6239  139.3944  163.5572 O.3     1  UNL1       -0.4561
     20 N         143.4684  142.9293  158.6951 N.am    1  UNL1       -0.2956
     21 C         144.1965  141.6594  158.3680 C.2     1  UNL1        0.2537
     22 O         143.8758  140.3978  159.1134 O.2     1  UNL1       -0.2695
     23 H         143.6788  143.7574  158.2059 H       1  UNL1        0.1501
     24 C         145.2452  141.6509  157.2957 C.ar    1  UNL1        0.1033
     25 C         145.3076  140.7079  156.1309 C.ar    1  UNL1        0.1105
     26 N         146.5167  141.0582  155.3151 N.ar    1  UNL1       -0.2346
     27 C         147.2015  142.2177  155.9757 C.ar    1  UNL1        0.1347
     28 S         146.4157  142.5840  157.1999 S.2     1  UNL1       -0.0599
     29 C         140.9665  142.9192  159.3956 C.3     1  UNL1        0.0274
     30 C         140.2240  144.2088  159.2072 C.3     1  UNL1        0.0039
     31 C         140.7197  145.4625  159.8648 C.3     1  UNL1        0.0213
     32 C         140.2439  145.8266  161.2401 C.3     1  UNL1        0.0897
     33 N         140.3767  144.8428  162.3646 N.am    1  UNL1       -0.3009
     34 C         139.1515  144.2160  162.9613 C.2     1  UNL1        0.2463
     35 O         137.7936  144.5730  162.4335 O.2     1  UNL1       -0.2701
     36 H         141.2680  144.6085  162.7110 H       1  UNL1        0.1497
     37 C         139.2843  143.2323  164.0858 C.ar    1  UNL1        0.0590
     38 C         139.5680  143.7169  165.4767 C.ar    1  UNL1        0.0050
     39 C         139.7008  142.7330  166.6012 C.ar    1  UNL1        0.0002
     40 C         139.5500  141.2646  166.3348 C.ar    1  UNL1        0.0005
     41 C         139.2664  140.7800  164.9438 C.ar    1  UNL1        0.0063
     42 C         139.1335  141.7639  163.8193 C.ar    1  UNL1        0.0296
     43 S         138.8499  141.2792  162.4284 S.3     1  UNL1       -0.1126
     44 C         137.8754  140.1603  162.2081 C.3     1  UNL1        0.0742
@<TRIPOS>BOND
     1    18    19    1
     2    19     8    1
     3     8     9   ar
     4     9    10   ar
     5    10    11   ar
     6    11    12   ar
     7    12    13   ar
     8    13    14   ar
     9    14    15   ar
    10    15    16   ar
    11    16    17   ar
    12    17     2    1
    13     2     3   ar
    14     3     4   ar
    15     4     5   ar
    16     5     1    1
    17     1    29    1
    18    29    30    1
    19    30    31    1
    20    31    32    1
    21    32    33    1
    22    33    34   am
    23    34    35    2
    24    34    37    1
    25    37    38   ar
    26    38    39   ar
    27    39    40   ar
    28    40    41   ar
    29    41    42   ar
    30    42    43    1
    31    43    44    1
    32     1    20    1
    33    20    21   am
    34    21    22    2
    35    21    24    1
    36    24    25   ar
    37    25    26   ar
    38    26    27   ar
    39    27    28   ar
    40     5     6   ar
    41    17     8   ar
    42     6     2   ar
    43    15    10   ar
    44    42    37   ar
    45    28    24   ar
    46    33    36    1
    47    20    23    1
    48     6     7    1
@<TRIPOS>MOLECULE
*****
 44 48 0 0 0
SMALL
GASTEIGER

@<TRIPOS>ATOM
      1 C         142.6292  138.7772  157.8351 C.3     1  UNL1        0.1287
      2 C         140.6995  139.3644  161.1512 C.ar    1  UNL1        0.0814
      3 C         139.5678  139.1318  160.1946 C.ar    1  UNL1        0.1173
      4 N         140.1529  138.8835  158.8360 N.ar    1  UNL1       -0.2279
      5 C         141.6463  138.9627  158.9528 C.ar    1  UNL1        0.1351
      6 N         141.9841  139.2599  160.3838 N.ar    1  UNL1       -0.3393
      7 H         142.8899  139.3675  160.7543 H       1  UNL1        0.1671
      8 C         141.5120  140.6115  163.2807 C.ar    1  UNL1        0.2262
      9 N         141.3821  140.8983  164.7472 N.ar    1  UNL1       -0.2116
     10 C         140.3096  140.2247  165.5511 C.ar    1  UNL1        0.0844
     11 C         140.1797  140.5115  167.0176 C.ar    1  UNL1        0.0192
     12 C         139.1072  139.8379  167.8214 C.ar    1  UNL1        0.0015
     13 C         138.1647  138.8775  167.1586 C.ar    1  UNL1        0.0001
     14 C         138.2946  138.5907  165.6920 C.ar    1  UNL1        0.0015
     15 C         139.3671  139.2643  164.8883 C.ar    1  UNL1        0.0180
     16 C         139.4971  138.9775  163.4216 C.ar    1  UNL1        0.0076
     17 C         140.5695  139.6511  162.6179 C.ar    1  UNL1        0.0703
     18 C         144.0289  141.0131  162.7765 C.3     1  UNL1        0.2542
     19 O         142.5845  141.2851  162.4769 O.3     1  UNL1       -0.4561
     20 N         143.1943  137.4171  157.5512 N.am    1  UNL1       -0.2956
     21 C         142.3779  136.4074  156.8003 C.2     1  UNL1        0.2537
     22 O         140.9962  136.7580  156.3331 O.2     1  UNL1       -0.2695
     23 H         144.1012  137.1870  157.8578 H       1  UNL1        0.1501
     24 C         142.9430  135.0473  156.5164 C.ar    1  UNL1        0.1033
     25 C         143.0198  134.3876  155.1715 C.ar    1  UNL1        0.1105
     26 N         143.6548  133.0405  155.3515 N.ar    1  UNL1       -0.2346
     27 C         143.9705  132.8678  156.8076 C.ar    1  UNL1        0.1347
     28 S         143.5305  134.1081  157.5277 S.2     1  UNL1       -0.0599
     29 C         143.0470  139.9520  157.0011 C.3     1  UNL1        0.0274
     30 C         142.4142  141.2934  157.2248 C.3     1  UNL1        0.0039
     31 C         142.8621  142.1524  158.3700 C.3     1  UNL1        0.0213
     32 C         141.9148  143.1426  158.9802 C.3     1  UNL1        0.0897
     33 N         141.1696  142.7932  160.2342 N.am    1  UNL1       -0.3009
     34 C         140.0602  143.6790  160.7187 C.2     1  UNL1        0.2463
     35 O         139.6961  144.9140  159.9493 O.2     1  UNL1       -0.2701
     36 H         141.4086  141.9827  160.7392 H       1  UNL1        0.1497
     37 C         139.3150  143.3296  161.9727 C.ar    1  UNL1        0.0590
     38 C         138.1492  142.3875  161.9146 C.ar    1  UNL1        0.0050
     39 C         137.4040  142.0381  163.1687 C.ar    1  UNL1        0.0002
     40 C         137.8246  142.6308  164.4809 C.ar    1  UNL1        0.0005
     41 C         138.9904  143.5729  164.5390 C.ar    1  UNL1        0.0063
     42 C         139.7356  143.9223  163.2849 C.ar    1  UNL1        0.0296
     43 S         140.9015  144.8643  163.3430 S.3     1  UNL1       -0.1126
     44 C         142.1725  144.4439  164.0197 C.3     1  UNL1        0.0742
@<TRIPOS>BOND
     1    18    19    1
     2    19     8    1
     3     8     9   ar
     4     9    10   ar
     5    10    11   ar
     6    11    12   ar
     7    12    13   ar
     8    13    14   ar
     9    14    15   ar
    10    15    16   ar
    11    16    17   ar
    12    17     2    1
    13     2     3   ar
    14     3     4   ar
    15     4     5   ar
    16     5     1    1
    17     1    29    1
    18    29    30    1
    19    30    31    1
    20    31    32    1
    21    32    33    1
    22    33    34   am
    23    34    35    2
    24    34    37    1
    25    37    38   ar
    26    38    39   ar
    27    39    40   ar
    28    40    41   ar
    29    41    42   ar
    30    42    43    1
    31    43    44    1
    32     1    20    1
    33    20    21   am
    34    21    22    2
    35    21    24    1
    36    24    25   ar
    37    25    26   ar
    38    26    27   ar
    39    27    28   ar
    40     5     6   ar
    41    17     8   ar
    42     6     2   ar
    43    15    10   ar
    44    42    37   ar
    45    28    24   ar
    46    33    36    1
    47    20    23    1
    48     6     7    1
@<TRIPOS>MOLECULE
*****
 44 48 0 0 0
SMALL
GASTEIGER

@<TRIPOS>ATOM
      1 C         138.5200  141.5744  160.1934 C.3     1  UNL1        0.1287
      2 C         139.3225  141.6460  163.9903 C.ar    1  UNL1        0.0814
      3 C         137.8312  141.8057  164.0062 C.ar    1  UNL1        0.1173
      4 N         137.3490  141.7984  162.5859 N.ar    1  UNL1       -0.2279
      5 C         138.5424  141.6341  161.6920 C.ar    1  UNL1        0.1351
      6 N         139.7622  141.5399  162.5601 N.ar    1  UNL1       -0.3393
      7 H         140.6886  141.4281  162.2463 H       1  UNL1        0.1671
      8 C         141.5103  142.3607  165.1957 C.ar    1  UNL1        0.2262
      9 N         142.4050  142.3151  166.3987 N.ar    1  UNL1       -0.2116
     10 C         142.0068  141.5091  167.5995 C.ar    1  UNL1        0.0844
     11 C         142.9016  141.4635  168.8025 C.ar    1  UNL1        0.0192
     12 C         142.5034  140.6575  170.0032 C.ar    1  UNL1        0.0015
     13 C         141.2104  139.8971  170.0009 C.ar    1  UNL1        0.0001
     14 C         140.3156  139.9427  168.7979 C.ar    1  UNL1        0.0015
     15 C         140.7139  140.7487  167.5972 C.ar    1  UNL1        0.0180
     16 C         139.8191  140.7943  166.3941 C.ar    1  UNL1        0.0076
     17 C         140.2173  141.6003  165.1934 C.ar    1  UNL1        0.0703
     18 C         141.6401  144.6421  163.9594 C.3     1  UNL1        0.2542
     19 O         141.9085  143.1668  163.9949 O.3     1  UNL1       -0.4561
     20 N         138.9973  142.7471  159.3889 N.am    1  UNL1       -0.2956
     21 C         140.4608  143.0703  159.3299 C.2     1  UNL1        0.2537
     22 O         141.4471  142.2209  160.0753 O.2     1  UNL1       -0.2695
     23 H         138.3499  143.3045  158.8997 H       1  UNL1        0.1501
     24 C         140.9380  144.2429  158.5254 C.ar    1  UNL1        0.1033
     25 C         142.3566  144.7176  158.4150 C.ar    1  UNL1        0.1105
     26 N         142.3758  145.9149  157.5114 N.ar    1  UNL1       -0.2346
     27 C         140.9691  146.1800  157.0635 C.ar    1  UNL1        0.1347
     28 S         140.0805  145.1467  157.6902 S.2     1  UNL1       -0.0599
     29 C         138.0204  140.3421  159.4993 C.3     1  UNL1        0.0274
     30 C         138.6888  139.8654  158.2439 C.3     1  UNL1        0.0039
     31 C         139.7059  138.7648  158.3072 C.3     1  UNL1        0.0213
     32 C         141.0570  139.0255  158.9046 C.3     1  UNL1        0.0897
     33 N         141.2153  139.1077  160.3939 N.am    1  UNL1       -0.3009
     34 C         142.2052  138.2235  161.0928 C.2     1  UNL1        0.2463
     35 O         143.0366  137.2571  160.3024 O.2     1  UNL1       -0.2701
     36 H         140.6696  139.7420  160.9128 H       1  UNL1        0.1497
     37 C         142.3635  138.3057  162.5821 C.ar    1  UNL1        0.0590
     38 C         141.4282  137.5498  163.4787 C.ar    1  UNL1        0.0050
     39 C         141.5866  137.6321  164.9681 C.ar    1  UNL1        0.0002
     40 C         142.6803  138.4702  165.5609 C.ar    1  UNL1        0.0005
     41 C         143.6156  139.2261  164.6643 C.ar    1  UNL1        0.0063
     42 C         143.4572  139.1438  163.1749 C.ar    1  UNL1        0.0296
     43 S         144.3925  139.8997  162.2783 S.3     1  UNL1       -0.1126
     44 C         144.2246  141.3791  162.0956 C.3     1  UNL1        0.0742
@<TRIPOS>BOND
     1    18    19    1
     2    19     8    1
     3     8     9   ar
     4     9    10   ar
     5    10    11   ar
     6    11    12   ar
     7    12    13   ar
     8    13    14   ar
     9    14    15   ar
    10    15    16   ar
    11    16    17   ar
    12    17     2    1
    13     2     3   ar
    14     3     4   ar
    15     4     5   ar
    16     5     1    1
    17     1    29    1
    18    29    30    1
    19    30    31    1
    20    31    32    1
    21    32    33    1
    22    33    34   am
    23    34    35    2
    24    34    37    1
    25    37    38   ar
    26    38    39   ar
    27    39    40   ar
    28    40    41   ar
    29    41    42   ar
    30    42    43    1
    31    43    44    1
    32     1    20    1
    33    20    21   am
    34    21    22    2
    35    21    24    1
    36    24    25   ar
    37    25    26   ar
    38    26    27   ar
    39    27    28   ar
    40     5     6   ar
    41    17     8   ar
    42     6     2   ar
    43    15    10   ar
    44    42    37   ar
    45    28    24   ar
    46    33    36    1
    47    20    23    1
    48     6     7    1
@<TRIPOS>MOLECULE
*****
 44 48 0 0 0
SMALL
GASTEIGER

@<TRIPOS>ATOM
      1 C         142.9124  139.4546  158.2584 C.3     1  UNL1        0.1287
      2 C         143.3077  139.6004  162.1169 C.ar    1  UNL1        0.0814
      3 C         143.8145  138.2190  161.8256 C.ar    1  UNL1        0.1173
      4 N         143.7281  137.9962  160.3448 N.ar    1  UNL1       -0.2279
      5 C         143.1679  139.2400  159.7208 C.ar    1  UNL1        0.1351
      6 N         142.9081  140.2315  160.8161 N.ar    1  UNL1       -0.3393
      7 H         142.5400  141.1373  160.7014 H       1  UNL1        0.1671
      8 C         143.2933  141.7310  163.6037 C.ar    1  UNL1        0.2262
      9 N         143.2021  142.3694  164.9580 N.ar    1  UNL1       -0.2116
     10 C         143.0343  141.5156  166.1799 C.ar    1  UNL1        0.0844
     11 C         142.9431  142.1540  167.5342 C.ar    1  UNL1        0.0192
     12 C         142.7753  141.3002  168.7560 C.ar    1  UNL1        0.0015
     13 C         142.6986  139.8080  168.6235 C.ar    1  UNL1        0.0001
     14 C         142.7897  139.1696  167.2692 C.ar    1  UNL1        0.0015
     15 C         142.9576  140.0234  166.0474 C.ar    1  UNL1        0.0180
     16 C         143.0487  139.3850  164.6931 C.ar    1  UNL1        0.0076
     17 C         143.2166  140.2388  163.4713 C.ar    1  UNL1        0.0703
     18 C         144.3835  143.7672  162.4141 C.3     1  UNL1        0.2542
     19 O         143.4611  142.5847  162.3818 O.3     1  UNL1       -0.4561
     20 N         144.0482  139.7991  157.3412 N.am    1  UNL1       -0.2956
     21 C         144.7363  141.1262  157.4651 C.2     1  UNL1        0.2537
     22 O         144.2884  142.1089  158.5061 O.2     1  UNL1       -0.2695
     23 H         144.3422  139.1541  156.6579 H       1  UNL1        0.1501
     24 C         145.8721  141.4706  156.5479 C.ar    1  UNL1        0.1033
     25 C         146.1530  140.8390  155.2167 C.ar    1  UNL1        0.1105
     26 N         147.3810  141.4852  154.6469 N.ar    1  UNL1       -0.2346
     27 C         147.8590  142.5161  155.6260 C.ar    1  UNL1        0.1347
     28 S         146.9264  142.5071  156.8009 S.2     1  UNL1       -0.0599
     29 C         141.5210  139.3248  157.7132 C.3     1  UNL1        0.0274
     30 C         140.5084  138.4853  158.4341 C.3     1  UNL1        0.0039
     31 C         139.2880  139.1257  159.0261 C.3     1  UNL1        0.0213
     32 C         139.4292  140.3075  159.9392 C.3     1  UNL1        0.0897
     33 N         139.6565  140.0982  161.4070 N.am    1  UNL1       -0.3009
     34 C         138.6046  140.5081  162.3947 C.2     1  UNL1        0.2463
     35 O         137.3255  141.1271  161.9146 O.2     1  UNL1       -0.2701
     36 H         140.4960  139.6919  161.7221 H       1  UNL1        0.1497
     37 C         138.8319  140.2988  163.8625 C.ar    1  UNL1        0.0590
     38 C         138.6108  138.9453  164.4702 C.ar    1  UNL1        0.0050
     39 C         138.8382  138.7361  165.9381 C.ar    1  UNL1        0.0002
     40 C         139.2866  139.8803  166.7982 C.ar    1  UNL1        0.0005
     41 C         139.5077  141.2337  166.1905 C.ar    1  UNL1        0.0063
     42 C         139.2803  141.4429  164.7226 C.ar    1  UNL1        0.0296
     43 S         139.5014  142.7964  164.1148 S.3     1  UNL1       -0.1126
     44 C         139.9456  143.9417  164.9758 C.3     1  UNL1        0.0742
@<TRIPOS>BOND
     1    18    19    1
     2    19     8    1
     3     8     9   ar
     4     9    10   ar
     5    10    11   ar
     6    11    12   ar
     7    12    13   ar
     8    13    14   ar
     9    14    15   ar
    10    15    16   ar
    11    16    17   ar
    12    17     2    1
    13     2     3   ar
    14     3     4   ar
    15     4     5   ar
    16     5     1    1
    17     1    29    1
    18    29    30    1
    19    30    31    1
    20    31    32    1
    21    32    33    1
    22    33    34   am
    23    34    35    2
    24    34    37    1
    25    37    38   ar
    26    38    39   ar
    27    39    40   ar
    28    40    41   ar
    29    41    42   ar
    30    42    43    1
    31    43    44    1
    32     1    20    1
    33    20    21   am
    34    21    22    2
    35    21    24    1
    36    24    25   ar
    37    25    26   ar
    38    26    27   ar
    39    27    28   ar
    40     5     6   ar
    41    17     8   ar
    42     6     2   ar
    43    15    10   ar
    44    42    37   ar
    45    28    24   ar
    46    33    36    1
    47    20    23    1
    48     6     7    1
@<TRIPOS>MOLECULE
*****
 44 48 0 0 0
SMALL
GASTEIGER

@<TRIPOS>ATOM
      1 C         142.3813  143.4573  159.3557 C.3     1  UNL1        0.1287
      2 C         141.3914  143.0248  163.0838 C.ar    1  UNL1        0.0814
      3 C         141.8673  144.4472  163.0735 C.ar    1  UNL1        0.1173
      4 N         142.2961  144.7824  161.6757 N.ar    1  UNL1       -0.2279
      5 C         142.0851  143.5671  160.8221 C.ar    1  UNL1        0.1351
      6 N         141.5259  142.4807  161.6924 N.ar    1  UNL1       -0.3393
      7 H         141.2889  141.5706  161.4015 H       1  UNL1        0.1671
      8 C         140.1460  140.9782  164.0892 C.ar    1  UNL1        0.2262
      9 N         139.6267  140.2308  165.2815 N.ar    1  UNL1       -0.2116
     10 C         139.8332  140.7827  166.6609 C.ar    1  UNL1        0.0844
     11 C         139.3138  140.0354  167.8532 C.ar    1  UNL1        0.0192
     12 C         139.5203  140.5873  169.2326 C.ar    1  UNL1        0.0015
     13 C         140.2462  141.8866  169.4197 C.ar    1  UNL1        0.0001
     14 C         140.7656  142.6339  168.2273 C.ar    1  UNL1        0.0015
     15 C         140.5591  142.0820  166.8480 C.ar    1  UNL1        0.0180
     16 C         141.0785  142.8293  165.6556 C.ar    1  UNL1        0.0076
     17 C         140.8720  142.2774  164.2762 C.ar    1  UNL1        0.0703
     18 C         138.6715  139.6980  162.3753 C.3     1  UNL1        0.2542
     19 O         139.9395  140.4263  162.7097 O.3     1  UNL1       -0.4561
     20 N         141.3454  143.8618  158.3490 N.am    1  UNL1       -0.2956
     21 C         141.4006  145.2232  157.7217 C.2     1  UNL1        0.2537
     22 O         142.4917  146.1801  158.1011 O.2     1  UNL1       -0.2695
     23 H         140.6293  143.2337  158.1000 H       1  UNL1        0.1501
     24 C         140.3648  145.6276  156.7150 C.ar    1  UNL1        0.1033
     25 C         139.5871  146.9102  156.7169 C.ar    1  UNL1        0.1105
     26 N         138.6664  146.8959  155.5327 N.ar    1  UNL1       -0.2346
     27 C         138.8752  145.6044  154.7990 C.ar    1  UNL1        0.1347
     28 S         139.9249  144.8206  155.5297 S.2     1  UNL1       -0.0599
     29 C         143.7133  142.9431  158.8961 C.3     1  UNL1        0.0274
     30 C         144.0246  141.4787  158.9890 C.3     1  UNL1        0.0039
     31 C         143.1840  140.4846  158.2439 C.3     1  UNL1        0.0213
     32 C         142.2248  139.6049  158.9897 C.3     1  UNL1        0.0897
     33 N         142.1718  139.6540  160.4880 N.am    1  UNL1       -0.3009
     34 C         143.2066  138.9317  161.2990 C.2     1  UNL1        0.2463
     35 O         144.2941  138.1605  160.6118 O.2     1  UNL1       -0.2701
     36 H         141.4580  140.1603  160.9390 H       1  UNL1        0.1497
     37 C         143.1536  138.9808  162.7972 C.ar    1  UNL1        0.0590
     38 C         142.3032  138.0011  163.5502 C.ar    1  UNL1        0.0050
     39 C         142.2503  138.0502  165.0485 C.ar    1  UNL1        0.0002
     40 C         143.0478  139.0790  165.7938 C.ar    1  UNL1        0.0005
     41 C         143.8982  140.0588  165.0409 C.ar    1  UNL1        0.0063
     42 C         143.9511  140.0096  163.5425 C.ar    1  UNL1        0.0296
     43 S         144.8016  140.9893  162.7896 S.3     1  UNL1       -0.1126
     44 C         144.9996  142.3768  163.3244 C.3     1  UNL1        0.0742
@<TRIPOS>BOND
     1    18    19    1
     2    19     8    1
     3     8     9   ar
     4     9    10   ar
     5    10    11   ar
     6    11    12   ar
     7    12    13   ar
     8    13    14   ar
     9    14    15   ar
    10    15    16   ar
    11    16    17   ar
    12    17     2    1
    13     2     3   ar
    14     3     4   ar
    15     4     5   ar
    16     5     1    1
    17     1    29    1
    18    29    30    1
    19    30    31    1
    20    31    32    1
    21    32    33    1
    22    33    34   am
    23    34    35    2
    24    34    37    1
    25    37    38   ar
    26    38    39   ar
    27    39    40   ar
    28    40    41   ar
    29    41    42   ar
    30    42    43    1
    31    43    44    1
    32     1    20    1
    33    20    21   am
    34    21    22    2
    35    21    24    1
    36    24    25   ar
    37    25    26   ar
    38    26    27   ar
    39    27    28   ar
    40     5     6   ar
    41    17     8   ar
    42     6     2   ar
    43    15    10   ar
    44    42    37   ar
    45    28    24   ar
    46    33    36    1
    47    20    23    1
    48     6     7    1
@<TRIPOS>MOLECULE
*****
 44 48 0 0 0
SMALL
GASTEIGER

@<TRIPOS>ATOM
      1 C         139.3167  140.1529  159.0834 C.3     1  UNL1        0.1287
      2 C         138.8931  140.9572  162.8569 C.ar    1  UNL1        0.0814
      3 C         137.5014  140.5318  162.4932 C.ar    1  UNL1        0.1173
      4 N         137.4907  140.1788  161.0354 N.ar    1  UNL1       -0.2279
      5 C         138.8758  140.3859  160.4980 C.ar    1  UNL1        0.1351
      6 N         139.7426  140.8670  161.6239 N.ar    1  UNL1       -0.3393
      7 H         140.7007  141.0853  161.5640 H       1  UNL1        0.1671
      8 C         139.9610  142.7553  164.3985 C.ar    1  UNL1        0.2262
      9 N         140.4224  143.1938  165.7567 N.ar    1  UNL1       -0.2116
     10 C         140.2772  142.2728  166.9317 C.ar    1  UNL1        0.0844
     11 C         140.7385  142.7113  168.2899 C.ar    1  UNL1        0.0192
     12 C         140.5933  141.7903  169.4649 C.ar    1  UNL1        0.0015
     13 C         139.9867  140.4307  169.2816 C.ar    1  UNL1        0.0001
     14 C         139.5254  139.9921  167.9234 C.ar    1  UNL1        0.0015
     15 C         139.6706  140.9132  166.7484 C.ar    1  UNL1        0.0180
     16 C         139.2092  140.4746  165.3901 C.ar    1  UNL1        0.0076
     17 C         139.3545  141.3957  164.2152 C.ar    1  UNL1        0.0703
     18 C         139.0620  144.7189  162.9542 C.3     1  UNL1        0.2542
     19 O         140.1062  143.6763  163.2234 O.3     1  UNL1       -0.4561
     20 N         138.3096  140.1676  157.9718 N.am    1  UNL1       -0.2956
     21 C         137.7400  141.4700  157.4931 C.2     1  UNL1        0.2537
     22 O         138.1774  142.7577  158.1259 O.2     1  UNL1       -0.2695
     23 H         138.0225  139.3225  157.5565 H       1  UNL1        0.1501
     24 C         136.7329  141.4848  156.3816 C.ar    1  UNL1        0.1033
     25 C         135.4409  140.7234  156.3523 C.ar    1  UNL1        0.1105
     26 N         134.7504  141.0315  155.0568 N.ar    1  UNL1       -0.2346
     27 C         135.6157  141.9833  154.2854 C.ar    1  UNL1        0.1347
     28 S         136.8410  142.2635  155.1041 S.2     1  UNL1       -0.0599
     29 C         140.7647  139.9052  158.7803 C.3     1  UNL1        0.0274
     30 C         141.2837  138.5004  158.6961 C.3     1  UNL1        0.0039
     31 C         142.6978  138.1981  159.0945 C.3     1  UNL1        0.0213
     32 C         142.9718  137.3166  160.2769 C.3     1  UNL1        0.0897
     33 N         143.2975  137.9268  161.6079 N.am    1  UNL1       -0.3009
     34 C         142.1928  138.3145  162.5456 C.2     1  UNL1        0.2463
     35 O         140.7625  138.0920  162.1525 O.2     1  UNL1       -0.2701
     36 H         144.2363  138.0729  161.8660 H       1  UNL1        0.1497
     37 C         142.5185  138.9247  163.8766 C.ar    1  UNL1        0.0590
     38 C         142.3746  138.1125  165.1295 C.ar    1  UNL1        0.0050
     39 C         142.7003  138.7228  166.4605 C.ar    1  UNL1        0.0002
     40 C         143.1699  140.1453  166.5386 C.ar    1  UNL1        0.0005
     41 C         143.3139  140.9575  165.2858 C.ar    1  UNL1        0.0063
     42 C         142.9881  140.3471  163.9547 C.ar    1  UNL1        0.0296
     43 S         143.1321  141.1593  162.7019 S.3     1  UNL1       -0.1126
     44 C         144.4905  141.3874  162.1078 C.3     1  UNL1        0.0742
@<TRIPOS>BOND
     1    18    19    1
     2    19     8    1
     3     8     9   ar
     4     9    10   ar
     5    10    11   ar
     6    11    12   ar
     7    12    13   ar
     8    13    14   ar
     9    14    15   ar
    10    15    16   ar
    11    16    17   ar
    12    17     2    1
    13     2     3   ar
    14     3     4   ar
    15     4     5   ar
    16     5     1    1
    17     1    29    1
    18    29    30    1
    19    30    31    1
    20    31    32    1
    21    32    33    1
    22    33    34   am
    23    34    35    2
    24    34    37    1
    25    37    38   ar
    26    38    39   ar
    27    39    40   ar
    28    40    41   ar
    29    41    42   ar
    30    42    43    1
    31    43    44    1
    32     1    20    1
    33    20    21   am
    34    21    22    2
    35    21    24    1
    36    24    25   ar
    37    25    26   ar
    38    26    27   ar
    39    27    28   ar
    40     5     6   ar
    41    17     8   ar
    42     6     2   ar
    43    15    10   ar
    44    42    37   ar
    45    28    24   ar
    46    33    36    1
    47    20    23    1
    48     6     7    1
@<TRIPOS>MOLECULE
*****
 44 48 0 0 0
SMALL
GASTEIGER

@<TRIPOS>ATOM
      1 C         142.5558  138.4421  158.3872 C.3     1  UNL1        0.1287
      2 C         142.5486  139.1310  162.2070 C.ar    1  UNL1        0.0814
      3 C         144.0203  139.1194  161.9174 C.ar    1  UNL1        0.1173
      4 N         144.2022  138.8599  160.4513 N.ar    1  UNL1       -0.2279
      5 C         142.8428  138.7112  159.8347 C.ar    1  UNL1        0.1351
      6 N         141.8208  138.8788  160.9199 N.ar    1  UNL1       -0.3393
      7 H         140.8439  138.8315  160.8071 H       1  UNL1        0.1671
      8 C         140.4589  139.7007  163.6418 C.ar    1  UNL1        0.2262
      9 N         139.8259  139.9252  164.9831 N.ar    1  UNL1       -0.2116
     10 C         140.6497  139.8046  166.2308 C.ar    1  UNL1        0.0844
     11 C         140.0168  140.0291  167.5721 C.ar    1  UNL1        0.0192
     12 C         140.8406  139.9085  168.8197 C.ar    1  UNL1        0.0015
     13 C         142.2973  139.5634  168.7262 C.ar    1  UNL1        0.0001
     14 C         142.9303  139.3388  167.3850 C.ar    1  UNL1        0.0015
     15 C         142.1065  139.4594  166.1373 C.ar    1  UNL1        0.0180
     16 C         142.7394  139.2349  164.7960 C.ar    1  UNL1        0.0076
     17 C         141.9156  139.3555  163.5483 C.ar    1  UNL1        0.0703
     18 C         138.3900  138.9999  162.2351 C.3     1  UNL1        0.2542
     19 O         139.6351  139.8213  162.3941 O.3     1  UNL1       -0.4561
     20 N         142.1391  137.0698  157.9477 N.am    1  UNL1       -0.2956
     21 C         142.9155  136.3559  156.8812 C.2     1  UNL1        0.2537
     22 O         144.1086  137.0142  156.2542 O.2     1  UNL1       -0.2695
     23 H         141.3560  136.6378  158.3592 H       1  UNL1        0.1501
     24 C         142.4989  134.9836  156.4417 C.ar    1  UNL1        0.1033
     25 C         142.9501  133.6884  157.0489 C.ar    1  UNL1        0.1105
     26 N         142.2879  132.5698  156.3002 N.ar    1  UNL1       -0.2346
     27 C         141.4275  133.1738  155.2304 C.ar    1  UNL1        0.1347
     28 S         141.5578  134.6656  155.3177 S.2     1  UNL1       -0.0599
     29 C         142.6856  139.5454  157.3792 C.3     1  UNL1        0.0274
     30 C         143.9680  140.3159  157.2716 C.3     1  UNL1        0.0039
     31 C         144.0697  141.6896  157.8652 C.3     1  UNL1        0.0213
     32 C         142.9937  142.1922  158.7816 C.3     1  UNL1        0.0897
     33 N         143.1500  142.0568  160.2673 N.am    1  UNL1       -0.3009
     34 C         142.9252  143.2439  161.1563 C.2     1  UNL1        0.2463
     35 O         142.5440  144.5662  160.5597 O.2     1  UNL1       -0.2701
     36 H         143.4002  141.1889  160.6588 H       1  UNL1        0.1497
     37 C         143.0815  143.1085  162.6419 C.ar    1  UNL1        0.0590
     38 C         144.4445  142.9169  163.2383 C.ar    1  UNL1        0.0050
     39 C         144.6008  142.7815  164.7240 C.ar    1  UNL1        0.0002
     40 C         143.3942  142.8376  165.6133 C.ar    1  UNL1        0.0005
     41 C         142.0312  143.0292  165.0170 C.ar    1  UNL1        0.0063
     42 C         141.8749  143.1646  163.5312 C.ar    1  UNL1        0.0296
     43 S         140.5119  143.3562  162.9349 S.3     1  UNL1       -0.1126
     44 C         139.8802  144.7167  162.9293 C.3     1  UNL1        0.0742
@<TRIPOS>BOND
     1    18    19    1
     2    19     8    1
     3     8     9   ar
     4     9    10   ar
     5    10    11   ar
     6    11    12   ar
     7    12    13   ar
     8    13    14   ar
     9    14    15   ar
    10    15    16   ar
    11    16    17   ar
    12    17     2    1
    13     2     3   ar
    14     3     4   ar
    15     4     5   ar
    16     5     1    1
    17     1    29    1
    18    29    30    1
    19    30    31    1
    20    31    32    1
    21    32    33    1
    22    33    34   am
    23    34    35    2
    24    34    37    1
    25    37    38   ar
    26    38    39   ar
    27    39    40   ar
    28    40    41   ar
    29    41    42   ar
    30    42    43    1
    31    43    44    1
    32     1    20    1
    33    20    21   am
    34    21    22    2
    35    21    24    1
    36    24    25   ar
    37    25    26   ar
    38    26    27   ar
    39    27    28   ar
    40     5     6   ar
    41    17     8   ar
    42     6     2   ar
    43    15    10   ar
    44    42    37   ar
    45    28    24   ar
    46    33    36    1
    47    20    23    1
    48     6     7    1
