@<TRIPOS>MOLECULE
*****
 32 36 0 0 0
SMALL
GASTEIGER

@<TRIPOS>ATOM
      1 C         140.9063  138.8944  161.1128 C.2     1  UNL1        0.0032
      2 C         140.1183  138.0739  162.0905 C.2     1  UNL1        0.0389
      3 C         139.9293  138.5601  163.4969 C.ar    1  UNL1        0.1668
      4 N         138.9664  137.8601  164.4095 N.ar    1  UNL1       -0.2121
      5 C         138.7775  138.3462  165.8159 C.ar    1  UNL1        0.1316
      6 N         137.8145  137.6461  166.7284 N.pl3   1  UNL1       -0.3425
      7 C         139.5515  139.5323  166.3098 C.ar    1  UNL1        0.0877
      8 C         140.5145  140.2323  165.3972 C.ar    1  UNL1        0.2337
      9 N         140.7034  139.7462  163.9908 N.ar    1  UNL1       -0.1921
     10 O         141.1333  141.3668  166.1587 O.2     1  UNL1       -0.4360
     11 C         140.5529  141.3680  167.5419 C.ar    1  UNL1        0.1473
     12 C         140.7882  142.2550  168.7283 C.ar    1  UNL1        0.0376
     13 C         140.0459  142.0082  170.0082 C.ar    1  UNL1        0.0031
     14 C         139.0683  140.8744  170.1015 C.ar    1  UNL1        0.0002
     15 C         138.8329  139.9874  168.9151 C.ar    1  UNL1        0.0033
     16 C         139.5752  140.2342  167.6352 C.ar    1  UNL1        0.0418
     17 H         137.3065  136.8676  166.4043 H       1  UNL1        0.1437
     18 H         137.6905  137.9652  167.6515 H       1  UNL1        0.1437
     19 C         140.1229  137.9033  157.3507 C.ar    1  UNL1        0.1547
     20 C         139.9340  138.3894  158.7571 C.ar    1  UNL1        0.0384
     21 C         141.0952  138.4083  159.7064 C.ar    1  UNL1        0.0032
     22 C         142.4453  137.9410  159.2494 C.ar    1  UNL1        0.0017
     23 C         142.6342  137.4549  157.8430 C.ar    1  UNL1        0.0206
     24 C         141.4730  137.4360  156.8936 C.ar    1  UNL1        0.0994
     25 N         141.6619  136.9499  155.4872 N.ar    1  UNL1       -0.2839
     26 C         142.0406  137.7935  154.3061 C.ar    1  UNL1        0.1826
     27 N         142.1180  136.8998  153.1039 N.ar    1  UNL1       -0.2280
     28 C         141.7872  135.5039  153.5420 C.ar    1  UNL1        0.0786
     29 C         141.7456  134.2901  152.6617 C.3     1  UNL1        0.0538
     30 C         141.5053  135.5349  155.0149 C.ar    1  UNL1        0.0963
     31 C         138.6977  139.0662  155.5159 C.3     1  UNL1        0.2525
     32 O         138.9618  137.8844  156.4013 O.3     1  UNL1       -0.4700
@<TRIPOS>BOND
     1    31    32    1
     2    32    19    1
     3    19    20   ar
     4    20    21   ar
     5    21     1    1
     6     1     2    2
     7     2     3    1
     8     3     4   ar
     9     4     5   ar
    10     5     6    1
    11     5     7   ar
    12     7     8   ar
    13     8     9   ar
    14     8    10   ar
    15    10    11   ar
    16    11    12   ar
    17    12    13   ar
    18    13    14   ar
    19    14    15   ar
    20    15    16   ar
    21    21    22   ar
    22    22    23   ar
    23    23    24   ar
    24    24    25    1
    25    25    26   ar
    26    26    27   ar
    27    27    28   ar
    28    28    29    1
    29    28    30   ar
    30    24    19   ar
    31    30    25   ar
    32     9     3   ar
    33    16    11   ar
    34    16     7   ar
    35     6    17    1
    36     6    18    1
@<TRIPOS>MOLECULE
*****
 32 36 0 0 0
SMALL
GASTEIGER

@<TRIPOS>ATOM
      1 C         141.5984  138.0218  161.9653 C.2     1  UNL1        0.0032
      2 C         142.0110  138.8504  160.7850 C.2     1  UNL1        0.0389
      3 C         141.7591  138.3511  159.3931 C.ar    1  UNL1        0.1668
      4 N         142.8504  137.6519  158.6381 N.ar    1  UNL1       -0.2121
      5 C         142.5985  137.1525  157.2463 C.ar    1  UNL1        0.1316
      6 N         143.6899  136.4533  156.4913 N.pl3   1  UNL1       -0.3425
      7 C         141.2552  137.3524  156.6095 C.ar    1  UNL1        0.0877
      8 C         140.1638  138.0517  157.3645 C.ar    1  UNL1        0.2337
      9 N         140.4158  138.5510  158.7563 N.ar    1  UNL1       -0.1921
     10 O         138.9507  138.1033  156.4838 O.2     1  UNL1       -0.4360
     11 C         139.2922  137.4360  155.1846 C.ar    1  UNL1        0.1473
     12 C         138.4903  137.1910  153.9408 C.ar    1  UNL1        0.0376
     13 C         139.1127  136.4819  152.7748 C.ar    1  UNL1        0.0031
     14 C         140.5370  136.0178  152.8524 C.ar    1  UNL1        0.0002
     15 C         141.3389  136.2628  154.0961 C.ar    1  UNL1        0.0033
     16 C         140.7165  136.9719  155.2622 C.ar    1  UNL1        0.0418
     17 H         144.5715  136.3221  156.9093 H       1  UNL1        0.1437
     18 H         143.5245  136.1255  155.5778 H       1  UNL1        0.1437
     19 C         140.9484  139.3032  165.6646 C.ar    1  UNL1        0.1547
     20 C         140.6965  138.8039  164.2728 C.ar    1  UNL1        0.0384
     21 C         141.8504  138.5211  163.3571 C.ar    1  UNL1        0.0032
     22 C         143.2562  138.7377  163.8331 C.ar    1  UNL1        0.0017
     23 C         143.5081  139.2370  165.2250 C.ar    1  UNL1        0.0206
     24 C         142.3543  139.5198  166.1407 C.ar    1  UNL1        0.0994
     25 N         142.6062  140.0191  167.5325 N.ar    1  UNL1       -0.2839
     26 C         142.7332  139.1718  168.7637 C.ar    1  UNL1        0.1826
     27 N         142.9809  140.0824  169.9296 N.ar    1  UNL1       -0.2280
     28 C         143.0069  141.4926  169.4190 C.ar    1  UNL1        0.0786
     29 C         143.2261  142.7254  170.2449 C.3     1  UNL1        0.0538
     30 C         142.7754  141.4534  167.9376 C.ar    1  UNL1        0.0963
     31 C         138.4189  139.1055  166.2240 C.3     1  UNL1        0.2525
     32 O         139.7946  139.5860  166.5804 O.3     1  UNL1       -0.4700
@<TRIPOS>BOND
     1    31    32    1
     2    32    19    1
     3    19    20   ar
     4    20    21   ar
     5    21     1    1
     6     1     2    2
     7     2     3    1
     8     3     4   ar
     9     4     5   ar
    10     5     6    1
    11     5     7   ar
    12     7     8   ar
    13     8     9   ar
    14     8    10   ar
    15    10    11   ar
    16    11    12   ar
    17    12    13   ar
    18    13    14   ar
    19    14    15   ar
    20    15    16   ar
    21    21    22   ar
    22    22    23   ar
    23    23    24   ar
    24    24    25    1
    25    25    26   ar
    26    26    27   ar
    27    27    28   ar
    28    28    29    1
    29    28    30   ar
    30    24    19   ar
    31    30    25   ar
    32     9     3   ar
    33    16    11   ar
    34    16     7   ar
    35     6    17    1
    36     6    18    1
@<TRIPOS>MOLECULE
*****
 32 36 0 0 0
SMALL
GASTEIGER

@<TRIPOS>ATOM
      1 C         142.6407  137.9249  158.1758 C.2     1  UNL1        0.0032
      2 C         142.8965  137.6266  159.6234 C.2     1  UNL1        0.0389
      3 C         143.1749  138.7461  160.5820 C.ar    1  UNL1        0.1668
      4 N         143.9872  138.4914  161.8171 N.ar    1  UNL1       -0.2121
      5 C         144.2657  139.6110  162.7758 C.ar    1  UNL1        0.1316
      6 N         145.0780  139.3562  164.0108 N.pl3   1  UNL1       -0.3425
      7 C         143.7319  140.9853  162.4994 C.ar    1  UNL1        0.0877
      8 C         142.9196  141.2400  161.2644 C.ar    1  UNL1        0.2337
      9 N         142.6411  140.1204  160.3057 N.ar    1  UNL1       -0.1921
     10 O         142.5284  142.6880  161.2575 O.2     1  UNL1       -0.4360
     11 C         143.0989  143.3283  162.4882 C.ar    1  UNL1        0.1473
     12 C         143.0372  144.7335  163.0090 C.ar    1  UNL1        0.0376
     13 C         143.7193  145.0864  164.2975 C.ar    1  UNL1        0.0031
     14 C         144.4631  144.0340  165.0651 C.ar    1  UNL1        0.0002
     15 C         144.5248  142.6288  164.5442 C.ar    1  UNL1        0.0033
     16 C         143.8427  142.2759  163.2558 C.ar    1  UNL1        0.0418
     17 H         145.4284  138.4542  164.1922 H       1  UNL1        0.1437
     18 H         145.2608  140.0910  164.6401 H       1  UNL1        0.1437
     19 C         143.0148  134.5121  156.1853 C.ar    1  UNL1        0.1547
     20 C         143.2933  135.6316  157.1439 C.ar    1  UNL1        0.0384
     21 C         142.3623  136.8054  157.2171 C.ar    1  UNL1        0.0032
     22 C         141.1528  136.8597  156.3316 C.ar    1  UNL1        0.0017
     23 C         140.8743  135.7401  155.3729 C.ar    1  UNL1        0.0206
     24 C         141.8053  134.5663  155.2997 C.ar    1  UNL1        0.0994
     25 N         141.5269  133.4467  154.3411 N.ar    1  UNL1       -0.2839
     26 C         141.7453  133.4815  152.8575 C.ar    1  UNL1        0.1826
     27 N         141.3345  132.1522  152.2972 N.ar    1  UNL1       -0.2280
     28 C         140.8622  131.2957  153.4345 C.ar    1  UNL1        0.0786
     29 C         140.3593  129.8866  153.3274 C.3     1  UNL1        0.0538
     30 C         140.9811  132.0959  154.6976 C.ar    1  UNL1        0.0963
     31 C         144.3602  132.6302  157.3679 C.3     1  UNL1        0.2525
     32 O         143.9458  133.3382  156.1120 O.3     1  UNL1       -0.4700
@<TRIPOS>BOND
     1    31    32    1
     2    32    19    1
     3    19    20   ar
     4    20    21   ar
     5    21     1    1
     6     1     2    2
     7     2     3    1
     8     3     4   ar
     9     4     5   ar
    10     5     6    1
    11     5     7   ar
    12     7     8   ar
    13     8     9   ar
    14     8    10   ar
    15    10    11   ar
    16    11    12   ar
    17    12    13   ar
    18    13    14   ar
    19    14    15   ar
    20    15    16   ar
    21    21    22   ar
    22    22    23   ar
    23    23    24   ar
    24    24    25    1
    25    25    26   ar
    26    26    27   ar
    27    27    28   ar
    28    28    29    1
    29    28    30   ar
    30    24    19   ar
    31    30    25   ar
    32     9     3   ar
    33    16    11   ar
    34    16     7   ar
    35     6    17    1
    36     6    18    1
@<TRIPOS>MOLECULE
*****
 32 36 0 0 0
SMALL
GASTEIGER

@<TRIPOS>ATOM
      1 C         141.2531  139.5900  160.9598 C.2     1  UNL1        0.0032
      2 C         140.9013  138.8792  162.2330 C.2     1  UNL1        0.0389
      3 C         140.8013  139.6470  163.5177 C.ar    1  UNL1        0.1668
      4 N         141.2862  141.0649  163.5837 N.ar    1  UNL1       -0.2121
      5 C         141.1862  141.8328  164.8684 C.ar    1  UNL1        0.1316
      6 N         141.6711  143.2508  164.9343 N.pl3   1  UNL1       -0.3425
      7 C         140.6012  141.1827  166.0871 C.ar    1  UNL1        0.0877
      8 C         140.1162  139.7648  166.0211 C.ar    1  UNL1        0.2337
      9 N         140.2163  138.9970  164.7364 N.ar    1  UNL1       -0.1921
     10 O         139.5903  139.3914  167.3753 O.2     1  UNL1       -0.4360
     11 C         139.7501  140.5785  168.2782 C.ar    1  UNL1        0.1473
     12 C         139.4075  140.7943  169.7225 C.ar    1  UNL1        0.0376
     13 C         139.6896  142.1173  170.3706 C.ar    1  UNL1        0.0031
     14 C         140.3144  143.2244  169.5744 C.ar    1  UNL1        0.0002
     15 C         140.6571  143.0086  168.1301 C.ar    1  UNL1        0.0033
     16 C         140.3749  141.6856  167.4820 C.ar    1  UNL1        0.0418
     17 H         142.0551  143.6774  164.1345 H       1  UNL1        0.1437
     18 H         141.6055  143.7547  165.7775 H       1  UNL1        0.1437
     19 C         140.2819  138.0020  157.4549 C.ar    1  UNL1        0.1547
     20 C         140.1819  138.7698  158.7395 C.ar    1  UNL1        0.0384
     21 C         141.3531  138.8221  159.6751 C.ar    1  UNL1        0.0032
     22 C         142.6243  138.1066  159.3262 C.ar    1  UNL1        0.0017
     23 C         142.7244  137.3387  158.0415 C.ar    1  UNL1        0.0206
     24 C         141.5531  137.2864  157.1058 C.ar    1  UNL1        0.0994
     25 N         141.6532  136.5186  155.8211 N.ar    1  UNL1       -0.2839
     26 C         141.5037  137.0862  154.4408 C.ar    1  UNL1        0.1826
     27 N         141.6784  135.9667  153.4578 N.ar    1  UNL1       -0.2280
     28 C         141.9359  134.7072  154.2307 C.ar    1  UNL1        0.0786
     29 C         142.1681  133.3457  153.6457 C.3     1  UNL1        0.0538
     30 C         141.9203  135.0483  155.6913 C.ar    1  UNL1        0.0963
     31 C         138.6898  139.1821  155.7748 C.3     1  UNL1        0.2525
     32 O         139.1107  137.9496  156.5192 O.3     1  UNL1       -0.4700
@<TRIPOS>BOND
     1    31    32    1
     2    32    19    1
     3    19    20   ar
     4    20    21   ar
     5    21     1    1
     6     1     2    2
     7     2     3    1
     8     3     4   ar
     9     4     5   ar
    10     5     6    1
    11     5     7   ar
    12     7     8   ar
    13     8     9   ar
    14     8    10   ar
    15    10    11   ar
    16    11    12   ar
    17    12    13   ar
    18    13    14   ar
    19    14    15   ar
    20    15    16   ar
    21    21    22   ar
    22    22    23   ar
    23    23    24   ar
    24    24    25    1
    25    25    26   ar
    26    26    27   ar
    27    27    28   ar
    28    28    29    1
    29    28    30   ar
    30    24    19   ar
    31    30    25   ar
    32     9     3   ar
    33    16    11   ar
    34    16     7   ar
    35     6    17    1
    36     6    18    1
@<TRIPOS>MOLECULE
*****
 32 36 0 0 0
SMALL
GASTEIGER

@<TRIPOS>ATOM
      1 C         142.8784  137.0826  159.1985 C.2     1  UNL1        0.0032
      2 C         142.7862  136.9716  157.7055 C.2     1  UNL1        0.0389
      3 C         142.6725  135.6227  157.0593 C.ar    1  UNL1        0.1668
      4 N         143.3358  134.4324  157.6864 N.ar    1  UNL1       -0.2121
      5 C         143.2222  133.0835  157.0402 C.ar    1  UNL1        0.1316
      6 N         143.8856  131.8932  157.6673 N.pl3   1  UNL1       -0.3425
      7 C         142.4453  132.9248  155.7669 C.ar    1  UNL1        0.0877
      8 C         141.7820  134.1151  155.1399 C.ar    1  UNL1        0.2337
      9 N         141.8956  135.4640  155.7860 N.ar    1  UNL1       -0.1921
     10 O         141.0880  133.6551  153.8922 O.2     1  UNL1       -0.4360
     11 C         141.3224  132.1806  153.7481 C.ar    1  UNL1        0.1473
     12 C         140.8804  131.1906  152.7116 C.ar    1  UNL1        0.0376
     13 C         141.2772  129.7492  152.8337 C.ar    1  UNL1        0.0031
     14 C         142.1161  129.2979  153.9924 C.ar    1  UNL1        0.0002
     15 C         142.5581  130.2879  155.0290 C.ar    1  UNL1        0.0033
     16 C         142.1613  131.7292  154.9068 C.ar    1  UNL1        0.0418
     17 H         144.3955  131.9973  158.5030 H       1  UNL1        0.1437
     18 H         143.8110  131.0078  157.2432 H       1  UNL1        0.1437
     19 C         143.9693  139.9606  161.7038 C.ar    1  UNL1        0.1547
     20 C         143.8557  138.6117  161.0577 C.ar    1  UNL1        0.0384
     21 C         142.9920  138.4316  159.8447 C.ar    1  UNL1        0.0032
     22 C         142.2419  139.6002  159.2778 C.ar    1  UNL1        0.0017
     23 C         142.3555  140.9492  159.9239 C.ar    1  UNL1        0.0206
     24 C         143.2192  141.1293  161.1370 C.ar    1  UNL1        0.0994
     25 N         143.3329  142.4783  161.7831 N.ar    1  UNL1       -0.2839
     26 C         144.5362  143.3732  161.7501 C.ar    1  UNL1        0.1826
     27 N         144.2101  144.6171  162.5223 N.ar    1  UNL1       -0.2280
     28 C         142.8053  144.4909  163.0326 C.ar    1  UNL1        0.0786
     29 C         142.0714  145.5081  163.8554 C.3     1  UNL1        0.0538
     30 C         142.2631  143.1691  162.5758 C.ar    1  UNL1        0.0963
     31 C         144.2259  140.0720  164.2868 C.3     1  UNL1        0.2525
     32 O         144.8331  140.1408  162.9169 O.3     1  UNL1       -0.4700
@<TRIPOS>BOND
     1    31    32    1
     2    32    19    1
     3    19    20   ar
     4    20    21   ar
     5    21     1    1
     6     1     2    2
     7     2     3    1
     8     3     4   ar
     9     4     5   ar
    10     5     6    1
    11     5     7   ar
    12     7     8   ar
    13     8     9   ar
    14     8    10   ar
    15    10    11   ar
    16    11    12   ar
    17    12    13   ar
    18    13    14   ar
    19    14    15   ar
    20    15    16   ar
    21    21    22   ar
    22    22    23   ar
    23    23    24   ar
    24    24    25    1
    25    25    26   ar
    26    26    27   ar
    27    27    28   ar
    28    28    29    1
    29    28    30   ar
    30    24    19   ar
    31    30    25   ar
    32     9     3   ar
    33    16    11   ar
    34    16     7   ar
    35     6    17    1
    36     6    18    1
@<TRIPOS>MOLECULE
*****
 32 36 0 0 0
SMALL
GASTEIGER

@<TRIPOS>ATOM
      1 C         140.2923  138.3121  161.4937 C.2     1  UNL1        0.0032
      2 C         140.8447  139.1103  160.3502 C.2     1  UNL1        0.0389
      3 C         140.9035  138.5109  158.9764 C.ar    1  UNL1        0.1668
      4 N         142.1843  137.9144  158.4725 N.ar    1  UNL1       -0.2121
      5 C         142.2431  137.3150  157.0987 C.ar    1  UNL1        0.1316
      6 N         143.5239  136.7185  156.5949 N.pl3   1  UNL1       -0.3425
      7 C         141.0211  137.3121  156.2288 C.ar    1  UNL1        0.0877
      8 C         139.7404  137.9086  156.7327 C.ar    1  UNL1        0.2337
      9 N         139.6816  138.5079  158.1065 N.ar    1  UNL1       -0.1921
     10 O         138.7059  137.7621  155.6563 O.2     1  UNL1       -0.4360
     11 C         139.3474  137.0752  154.4873 C.ar    1  UNL1        0.1473
     12 C         138.8134  136.6670  153.1463 C.ar    1  UNL1        0.0376
     13 C         139.7102  135.9807  152.1592 C.ar    1  UNL1        0.0031
     14 C         141.1411  135.7026  152.5130 C.ar    1  UNL1        0.0002
     15 C         141.6751  136.1107  153.8539 C.ar    1  UNL1        0.0033
     16 C         140.7782  136.7971  154.8411 C.ar    1  UNL1        0.0418
     17 H         144.3259  136.7205  157.1658 H       1  UNL1        0.1437
     18 H         143.5625  136.3251  155.6932 H       1  UNL1        0.1437
     19 C         141.4310  139.6669  165.0458 C.ar    1  UNL1        0.1547
     20 C         141.4898  139.0676  163.6721 C.ar    1  UNL1        0.0384
     21 C         140.2335  138.9114  162.8675 C.ar    1  UNL1        0.0032
     22 C         138.9184  139.3547  163.4367 C.ar    1  UNL1        0.0017
     23 C         138.8596  139.9541  164.8105 C.ar    1  UNL1        0.0206
     24 C         140.1159  140.1102  165.6150 C.ar    1  UNL1        0.0994
     25 N         140.0571  140.7096  166.9888 N.ar    1  UNL1       -0.2839
     26 C         139.5523  140.0293  168.2267 C.ar    1  UNL1        0.1826
     27 N         139.6760  140.9937  169.3689 N.ar    1  UNL1       -0.2280
     28 C         140.2572  142.2701  168.8368 C.ar    1  UNL1        0.0786
     29 C         140.5513  143.5053  169.6355 C.3     1  UNL1        0.0538
     30 C         140.4927  142.0945  167.3659 C.ar    1  UNL1        0.0963
     31 C         143.2714  138.6411  166.5659 C.3     1  UNL1        0.2525
     32 O         142.6873  139.8231  165.8504 O.3     1  UNL1       -0.4700
@<TRIPOS>BOND
     1    31    32    1
     2    32    19    1
     3    19    20   ar
     4    20    21   ar
     5    21     1    1
     6     1     2    2
     7     2     3    1
     8     3     4   ar
     9     4     5   ar
    10     5     6    1
    11     5     7   ar
    12     7     8   ar
    13     8     9   ar
    14     8    10   ar
    15    10    11   ar
    16    11    12   ar
    17    12    13   ar
    18    13    14   ar
    19    14    15   ar
    20    15    16   ar
    21    21    22   ar
    22    22    23   ar
    23    23    24   ar
    24    24    25    1
    25    25    26   ar
    26    26    27   ar
    27    27    28   ar
    28    28    29    1
    29    28    30   ar
    30    24    19   ar
    31    30    25   ar
    32     9     3   ar
    33    16    11   ar
    34    16     7   ar
    35     6    17    1
    36     6    18    1
@<TRIPOS>MOLECULE
*****
 32 36 0 0 0
SMALL
GASTEIGER

@<TRIPOS>ATOM
      1 C         141.1628  138.8302  162.0007 C.2     1  UNL1        0.0032
      2 C         141.5655  139.4865  160.7135 C.2     1  UNL1        0.0389
      3 C         141.4300  138.7427  159.4179 C.ar    1  UNL1        0.1668
      4 N         140.2114  138.9376  158.5651 N.ar    1  UNL1       -0.2121
      5 C         140.0759  138.1938  157.2696 C.ar    1  UNL1        0.1316
      6 N         138.8573  138.3887  156.4168 N.pl3   1  UNL1       -0.3425
      7 C         141.1588  137.2551  156.8268 C.ar    1  UNL1        0.0877
      8 C         142.3774  137.0603  157.6796 C.ar    1  UNL1        0.2337
      9 N         142.5129  137.8041  158.9751 N.ar    1  UNL1       -0.1921
     10 O         143.2741  136.0762  156.9886 O.2     1  UNL1       -0.4360
     11 C         142.6098  135.6629  155.7087 C.ar    1  UNL1        0.1473
     12 C         143.0264  134.7173  154.6215 C.ar    1  UNL1        0.0376
     13 C         142.1357  134.5003  153.4343 C.ar    1  UNL1        0.0031
     14 C         140.8284  135.2289  153.3343 C.ar    1  UNL1        0.0002
     15 C         140.4118  136.1745  154.4216 C.ar    1  UNL1        0.0033
     16 C         141.3025  136.3916  155.6088 C.ar    1  UNL1        0.0418
     17 H         138.1465  139.0048  156.7074 H       1  UNL1        0.1437
     18 H         138.7683  137.9006  155.5665 H       1  UNL1        0.1437
     19 C         141.6665  141.7996  164.5850 C.ar    1  UNL1        0.1547
     20 C         141.5310  141.0558  163.2896 C.ar    1  UNL1        0.0384
     21 C         141.2984  139.5740  163.2963 C.ar    1  UNL1        0.0032
     22 C         141.2013  138.8359  164.5984 C.ar    1  UNL1        0.0017
     23 C         141.3369  139.5797  165.8940 C.ar    1  UNL1        0.0206
     24 C         141.5695  141.0615  165.8873 C.ar    1  UNL1        0.0994
     25 N         141.7050  141.8053  167.1829 N.ar    1  UNL1       -0.2839
     26 C         142.9690  141.9791  167.9717 C.ar    1  UNL1        0.1826
     27 N         142.6456  142.7871  169.1934 N.ar    1  UNL1       -0.2280
     28 C         141.1817  143.1127  169.1596 C.ar    1  UNL1        0.0786
     29 C         140.4309  143.9058  170.1878 C.3     1  UNL1        0.0538
     30 C         140.6005  142.5059  167.9170 C.ar    1  UNL1        0.0963
     31 C         140.7595  144.2183  164.3068 C.3     1  UNL1        0.2525
     32 O         141.8991  143.2814  164.5784 O.3     1  UNL1       -0.4700
@<TRIPOS>BOND
     1    31    32    1
     2    32    19    1
     3    19    20   ar
     4    20    21   ar
     5    21     1    1
     6     1     2    2
     7     2     3    1
     8     3     4   ar
     9     4     5   ar
    10     5     6    1
    11     5     7   ar
    12     7     8   ar
    13     8     9   ar
    14     8    10   ar
    15    10    11   ar
    16    11    12   ar
    17    12    13   ar
    18    13    14   ar
    19    14    15   ar
    20    15    16   ar
    21    21    22   ar
    22    22    23   ar
    23    23    24   ar
    24    24    25    1
    25    25    26   ar
    26    26    27   ar
    27    27    28   ar
    28    28    29    1
    29    28    30   ar
    30    24    19   ar
    31    30    25   ar
    32     9     3   ar
    33    16    11   ar
    34    16     7   ar
    35     6    17    1
    36     6    18    1
@<TRIPOS>MOLECULE
*****
 32 36 0 0 0
SMALL
GASTEIGER

@<TRIPOS>ATOM
      1 C         142.6564  137.6906  158.9484 C.2     1  UNL1        0.0032
      2 C         142.1197  137.5249  157.5576 C.2     1  UNL1        0.0389
      3 C         142.4050  136.2692  156.7882 C.ar    1  UNL1        0.1668
      4 N         141.8234  136.0803  155.4185 N.ar    1  UNL1       -0.2121
      5 C         142.1087  134.8246  154.6491 C.ar    1  UNL1        0.1316
      6 N         141.5271  134.6358  153.2794 N.pl3   1  UNL1       -0.3425
      7 C         142.9757  133.7579  155.2494 C.ar    1  UNL1        0.0877
      8 C         143.5573  133.9468  156.6191 C.ar    1  UNL1        0.2337
      9 N         143.2720  135.2024  157.3885 N.ar    1  UNL1       -0.1921
     10 O         144.3697  132.7299  156.9495 O.2     1  UNL1       -0.4360
     11 C         144.2902  131.7889  155.7841 C.ar    1  UNL1        0.1473
     12 C         144.8911  130.4357  155.5438 C.ar    1  UNL1        0.0376
     13 C         144.6303  129.7178  154.2529 C.ar    1  UNL1        0.0031
     14 C         143.7687  130.3531  153.2022 C.ar    1  UNL1        0.0002
     15 C         143.1679  131.7064  153.4424 C.ar    1  UNL1        0.0033
     16 C         143.4287  132.4243  154.7333 C.ar    1  UNL1        0.0418
     17 H         140.9580  135.3359  152.8854 H       1  UNL1        0.1437
     18 H         141.7143  133.8116  152.7744 H       1  UNL1        0.1437
     19 C         142.9375  140.5690  161.6660 C.ar    1  UNL1        0.1547
     20 C         143.2228  139.3134  160.8966 C.ar    1  UNL1        0.0384
     21 C         142.3711  138.9462  159.7178 C.ar    1  UNL1        0.0032
     22 C         141.2340  139.8347  159.3082 C.ar    1  UNL1        0.0017
     23 C         140.9487  141.0903  160.0776 C.ar    1  UNL1        0.0206
     24 C         141.8004  141.4575  161.2565 C.ar    1  UNL1        0.0994
     25 N         141.5151  142.7132  162.0259 N.ar    1  UNL1       -0.2839
     26 C         142.2826  143.9985  161.9317 C.ar    1  UNL1        0.1826
     27 N         141.6540  144.9836  162.8721 N.ar    1  UNL1       -0.2280
     28 C         140.4980  144.3072  163.5474 C.ar    1  UNL1        0.0786
     29 C         139.5877  144.9254  164.5668 C.3     1  UNL1        0.0538
     30 C         140.4122  142.9040  163.0244 C.ar    1  UNL1        0.0963
     31 C         145.1378  141.5573  162.6313 C.3     1  UNL1        0.2525
     32 O         143.7891  140.9362  162.8449 O.3     1  UNL1       -0.4700
@<TRIPOS>BOND
     1    31    32    1
     2    32    19    1
     3    19    20   ar
     4    20    21   ar
     5    21     1    1
     6     1     2    2
     7     2     3    1
     8     3     4   ar
     9     4     5   ar
    10     5     6    1
    11     5     7   ar
    12     7     8   ar
    13     8     9   ar
    14     8    10   ar
    15    10    11   ar
    16    11    12   ar
    17    12    13   ar
    18    13    14   ar
    19    14    15   ar
    20    15    16   ar
    21    21    22   ar
    22    22    23   ar
    23    23    24   ar
    24    24    25    1
    25    25    26   ar
    26    26    27   ar
    27    27    28   ar
    28    28    29    1
    29    28    30   ar
    30    24    19   ar
    31    30    25   ar
    32     9     3   ar
    33    16    11   ar
    34    16     7   ar
    35     6    17    1
    36     6    18    1
@<TRIPOS>MOLECULE
*****
 32 36 0 0 0
SMALL
GASTEIGER

@<TRIPOS>ATOM
      1 C         143.2860  141.0964  161.4238 C.2     1  UNL1        0.0032
      2 C         141.8176  141.0244  161.7210 C.2     1  UNL1        0.0389
      3 C         141.3438  140.9225  163.1406 C.ar    1  UNL1        0.1668
      4 N         140.6212  139.6922  163.6036 N.ar    1  UNL1       -0.2121
      5 C         140.1474  139.5903  165.0232 C.ar    1  UNL1        0.1316
      6 N         139.4248  138.3600  165.4862 N.pl3   1  UNL1       -0.3425
      7 C         140.3962  140.7187  165.9797 C.ar    1  UNL1        0.0877
      8 C         141.1187  141.9489  165.5167 C.ar    1  UNL1        0.2337
      9 N         141.5925  142.0508  164.0971 N.ar    1  UNL1       -0.1921
     10 O         141.2184  142.8926  166.6783 O.2     1  UNL1       -0.4360
     11 C         140.5575  142.2457  167.8593 C.ar    1  UNL1        0.1473
     12 C         140.3528  142.7065  169.2719 C.ar    1  UNL1        0.0376
     13 C         139.6399  141.8236  170.2529 C.ar    1  UNL1        0.0031
     14 C         139.1317  140.4800  169.8211 C.ar    1  UNL1        0.0002
     15 C         139.3364  140.0192  168.4084 C.ar    1  UNL1        0.0033
     16 C         140.0493  140.9021  167.4275 C.ar    1  UNL1        0.0418
     17 H         139.2615  137.6195  164.8584 H       1  UNL1        0.1437
     18 H         139.1138  138.2931  166.4179 H       1  UNL1        0.1437
     19 C         144.0334  140.1501  157.6429 C.ar    1  UNL1        0.1547
     20 C         143.5596  140.0482  159.0623 C.ar    1  UNL1        0.0384
     21 C         143.7598  141.1983  160.0042 C.ar    1  UNL1        0.0032
     22 C         144.4338  142.4503  159.5266 C.ar    1  UNL1        0.0017
     23 C         144.9076  142.5522  158.1071 C.ar    1  UNL1        0.0206
     24 C         144.7074  141.4021  157.1652 C.ar    1  UNL1        0.0994
     25 N         145.1812  141.5040  155.7456 N.ar    1  UNL1       -0.2839
     26 C         144.3179  141.7473  154.5433 C.ar    1  UNL1        0.1826
     27 N         145.2046  141.7742  153.3338 N.ar    1  UNL1       -0.2280
     28 C         146.6159  141.5476  153.7885 C.ar    1  UNL1        0.0786
     29 C         147.8288  141.4968  152.9074 C.3     1  UNL1        0.0538
     30 C         146.6014  141.3806  155.2791 C.ar    1  UNL1        0.0963
     31 C         142.8839  137.8948  157.0578 C.3     1  UNL1        0.2525
     32 O         143.8332  139.0000  156.7009 O.3     1  UNL1       -0.4700
@<TRIPOS>BOND
     1    31    32    1
     2    32    19    1
     3    19    20   ar
     4    20    21   ar
     5    21     1    1
     6     1     2    2
     7     2     3    1
     8     3     4   ar
     9     4     5   ar
    10     5     6    1
    11     5     7   ar
    12     7     8   ar
    13     8     9   ar
    14     8    10   ar
    15    10    11   ar
    16    11    12   ar
    17    12    13   ar
    18    13    14   ar
    19    14    15   ar
    20    15    16   ar
    21    21    22   ar
    22    22    23   ar
    23    23    24   ar
    24    24    25    1
    25    25    26   ar
    26    26    27   ar
    27    27    28   ar
    28    28    29    1
    29    28    30   ar
    30    24    19   ar
    31    30    25   ar
    32     9     3   ar
    33    16    11   ar
    34    16     7   ar
    35     6    17    1
    36     6    18    1
