@<TRIPOS>MOLECULE
*****
 36 39 0 0 0
SMALL
GASTEIGER

@<TRIPOS>ATOM
      1 C         139.9722  144.7555  162.9508 C.2     1  UNL1        0.2470
      2 O         138.5129  145.0978  162.8920 O.2     1  UNL1       -0.2701
      3 N         140.8816  145.1528  161.8261 N.am    1  UNL1       -0.3008
      4 H         141.8394  144.9282  161.8647 H       1  UNL1        0.1497
      5 N         142.0321  142.8208  165.6115 N.ar    1  UNL1       -0.3305
      6 C         140.7041  142.9347  166.2996 C.ar    1  UNL1        0.0598
      7 C         139.7708  143.6733  165.3866 C.ar    1  UNL1        0.0228
      8 C         140.5220  144.0159  164.1343 C.ar    1  UNL1        0.0664
      9 C         141.9196  143.4890  164.2733 C.ar    1  UNL1        0.0418
     10 C         143.0127  143.6092  163.2532 C.3     1  UNL1        0.0502
     11 C         140.3683  142.4032  167.6616 C.ar    1  UNL1        0.0158
     12 C         139.9848  140.9631  167.8311 C.ar    1  UNL1        0.0014
     13 C         139.6490  140.4317  169.1930 C.ar    1  UNL1        0.0000
     14 C         139.6968  141.3405  170.3854 C.ar    1  UNL1        0.0000
     15 C         140.0804  142.7807  170.2159 C.ar    1  UNL1        0.0000
     16 C         140.4161  143.3120  168.8540 C.ar    1  UNL1        0.0014
     17 C         143.2574  142.1555  166.1645 C.3     1  UNL1        0.1057
     18 C         142.4318  139.8540  165.2863 C.3     1  UNL1        0.0021
     19 C         143.3889  140.6623  166.1113 C.3     1  UNL1        0.0245
     20 C         140.3318  145.8925  160.6426 C.3     1  UNL1        0.0911
     21 C         140.5080  145.3345  159.2614 C.3     1  UNL1        0.0386
     22 C         139.8623  144.0325  158.8905 C.3     1  UNL1        0.0739
     23 N         139.7834  142.9213  159.8951 N.3     1  UNL1       -0.2697
     24 C         141.0356  142.2340  160.3529 C.3     1  UNL1        0.0938
     25 C         140.9569  141.1228  161.3575 C.3     1  UNL1        0.1081
     26 N         139.6259  140.6989  161.9042 N.pl3   1  UNL1       -0.3040
     27 C         138.3738  141.3863  161.4463 C.3     1  UNL1        0.1081
     28 C         138.4525  142.4974  160.4418 C.3     1  UNL1        0.0938
     29 C         139.5472  139.5877  162.9087 C.ar    1  UNL1        0.0594
     30 C         140.3002  138.3115  162.6759 C.ar    1  UNL1        0.0154
     31 C         140.2215  137.2004  163.6804 C.ar    1  UNL1        0.0022
     32 C         139.3896  137.3654  164.9177 C.ar    1  UNL1        0.0123
     33 C         138.6366  138.6416  165.1505 C.ar    1  UNL1        0.0694
     34 CL        137.8048  138.8066  166.3877 Cl      1  UNL1       -0.0813
     35 C         138.7153  139.7528  164.1460 C.ar    1  UNL1        0.0815
     36 CL        137.9623  141.0290  164.3786 Cl      1  UNL1       -0.0801
@<TRIPOS>BOND
     1    18    19    1
     2    19    17    1
     3    17     5    1
     4     5     6   ar
     5     6    11    1
     6    11    12   ar
     7    12    13   ar
     8    13    14   ar
     9    14    15   ar
    10    15    16   ar
    11     6     7   ar
    12     7     8   ar
    13     8     1    1
    14     1     2    2
    15     1     3   am
    16     3    20    1
    17    20    21    1
    18    21    22    1
    19    22    23    1
    20    23    24    1
    21    24    25    1
    22    25    26    1
    23    26    29    1
    24    29    30   ar
    25    30    31   ar
    26    31    32   ar
    27    32    33   ar
    28    33    34    1
    29    33    35   ar
    30    35    36    1
    31    26    27    1
    32    27    28    1
    33     8     9   ar
    34     9    10    1
    35     9     5   ar
    36    16    11   ar
    37    28    23    1
    38    35    29   ar
    39     3     4    1
@<TRIPOS>MOLECULE
*****
 36 39 0 0 0
SMALL
GASTEIGER

@<TRIPOS>ATOM
      1 C         138.9667  144.3774  163.3787 C.2     1  UNL1        0.2470
      2 O         137.5933  144.3113  162.7792 O.2     1  UNL1       -0.2701
      3 N         139.9744  145.3489  162.8395 N.am    1  UNL1       -0.3008
      4 H         140.8758  145.3923  163.2329 H       1  UNL1        0.1497
      5 N         139.4933  141.5265  165.9594 N.ar    1  UNL1       -0.3305
      6 C         140.2970  142.6309  166.5795 C.ar    1  UNL1        0.0598
      7 C         140.1975  143.8332  165.6882 C.ar    1  UNL1        0.0228
      8 C         139.3324  143.4719  164.5173 C.ar    1  UNL1        0.0664
      9 C         138.8972  142.0462  164.6849 C.ar    1  UNL1        0.0418
     10 C         138.0199  141.2757  163.7433 C.3     1  UNL1        0.0502
     11 C         141.0652  142.5475  167.8652 C.ar    1  UNL1        0.0158
     12 C         140.3761  142.8188  169.1696 C.ar    1  UNL1        0.0014
     13 C         141.1444  142.7354  170.4552 C.ar    1  UNL1        0.0000
     14 C         142.6017  142.3808  170.4364 C.ar    1  UNL1        0.0000
     15 C         143.2908  142.1095  169.1320 C.ar    1  UNL1        0.0000
     16 C         142.5226  142.1928  167.8464 C.ar    1  UNL1        0.0014
     17 C         139.3168  140.1448  166.5161 C.3     1  UNL1        0.1057
     18 C         138.0497  137.8876  166.2939 C.3     1  UNL1        0.0021
     19 C         138.0490  139.3871  166.2546 C.3     1  UNL1        0.0245
     20 C         139.6086  146.2543  161.7008 C.3     1  UNL1        0.0911
     21 C         140.0990  145.9529  160.3157 C.3     1  UNL1        0.0386
     22 C         141.2537  145.0167  160.1160 C.3     1  UNL1        0.0739
     23 N         141.3029  143.7164  160.8622 N.3     1  UNL1       -0.2697
     24 C         140.3378  142.6197  160.5220 C.3     1  UNL1        0.0938
     25 C         140.3869  141.3192  161.2681 C.3     1  UNL1        0.1081
     26 N         141.4011  141.1156  162.3544 N.pl3   1  UNL1       -0.3040
     27 C         142.3662  142.2125  162.6944 C.3     1  UNL1        0.1081
     28 C         142.3171  143.5128  161.9483 C.3     1  UNL1        0.0938
     29 C         141.4502  139.8153  163.1005 C.ar    1  UNL1        0.0594
     30 C         140.5592  138.6808  162.6895 C.ar    1  UNL1        0.0154
     31 C         140.6083  137.3804  163.4356 C.ar    1  UNL1        0.0022
     32 C         141.5484  137.2146  164.5927 C.ar    1  UNL1        0.0123
     33 C         142.4394  138.3492  165.0036 C.ar    1  UNL1        0.0694
     34 CL        143.3795  138.1834  166.1606 Cl      1  UNL1       -0.0813
     35 C         142.3903  139.6495  164.2575 C.ar    1  UNL1        0.0815
     36 CL        143.2813  140.7842  164.6684 Cl      1  UNL1       -0.0801
@<TRIPOS>BOND
     1    18    19    1
     2    19    17    1
     3    17     5    1
     4     5     6   ar
     5     6    11    1
     6    11    12   ar
     7    12    13   ar
     8    13    14   ar
     9    14    15   ar
    10    15    16   ar
    11     6     7   ar
    12     7     8   ar
    13     8     1    1
    14     1     2    2
    15     1     3   am
    16     3    20    1
    17    20    21    1
    18    21    22    1
    19    22    23    1
    20    23    24    1
    21    24    25    1
    22    25    26    1
    23    26    29    1
    24    29    30   ar
    25    30    31   ar
    26    31    32   ar
    27    32    33   ar
    28    33    34    1
    29    33    35   ar
    30    35    36    1
    31    26    27    1
    32    27    28    1
    33     8     9   ar
    34     9    10    1
    35     9     5   ar
    36    16    11   ar
    37    28    23    1
    38    35    29   ar
    39     3     4    1
@<TRIPOS>MOLECULE
*****
 36 39 0 0 0
SMALL
GASTEIGER

@<TRIPOS>ATOM
      1 C         140.1525  139.3347  158.5563 C.2     1  UNL1        0.2470
      2 O         139.2915  138.4298  157.7258 O.2     1  UNL1       -0.2701
      3 N         140.7936  140.5394  157.9336 N.am    1  UNL1       -0.3008
      4 H         141.3587  141.1333  158.4787 H       1  UNL1        0.1497
      5 N         141.4282  138.4083  162.1031 N.ar    1  UNL1       -0.3305
      6 C         139.9933  138.7393  162.3885 C.ar    1  UNL1        0.0598
      7 C         139.3408  139.1266  161.0946 C.ar    1  UNL1        0.0228
      8 C         140.3724  139.0350  160.0095 C.ar    1  UNL1        0.0664
      9 C         141.6626  138.5911  160.6328 C.ar    1  UNL1        0.0418
     10 C         142.9593  138.3689  159.9123 C.3     1  UNL1        0.0502
     11 C         139.3278  138.6914  163.7319 C.ar    1  UNL1        0.0158
     12 C         139.1324  137.3759  164.4256 C.ar    1  UNL1        0.0014
     13 C         138.4668  137.3280  165.7690 C.ar    1  UNL1        0.0000
     14 C         137.9968  138.5956  166.4187 C.ar    1  UNL1        0.0000
     15 C         138.1922  139.9111  165.7251 C.ar    1  UNL1        0.0000
     16 C         138.8577  139.9590  164.3817 C.ar    1  UNL1        0.0014
     17 C         142.4495  137.9713  163.1110 C.3     1  UNL1        0.1057
     18 C         144.3684  139.7118  163.3081 C.3     1  UNL1        0.0021
     19 C         143.1978  138.9946  163.9127 C.3     1  UNL1        0.0245
     20 C         140.5737  140.8391  156.4804 C.3     1  UNL1        0.0911
     21 C         139.4173  141.6959  156.0579 C.3     1  UNL1        0.0386
     22 C         139.2157  143.0446  156.6826 C.3     1  UNL1        0.0739
     23 N         139.2716  143.1965  158.1738 N.3     1  UNL1       -0.2697
     24 C         140.2709  144.1263  158.7959 C.3     1  UNL1        0.0938
     25 C         140.3270  144.2783  160.2872 C.3     1  UNL1        0.1081
     26 N         139.3837  143.5005  161.1563 N.pl3   1  UNL1       -0.3040
     27 C         138.3845  142.5708  160.5341 C.3     1  UNL1        0.1081
     28 C         138.3284  142.4188  159.0429 C.3     1  UNL1        0.0938
     29 C         139.4397  143.6525  162.6475 C.ar    1  UNL1        0.0594
     30 C         138.4202  144.4958  163.3543 C.ar    1  UNL1        0.0154
     31 C         138.4763  144.6477  164.8455 C.ar    1  UNL1        0.0022
     32 C         139.5518  143.9564  165.6300 C.ar    1  UNL1        0.0123
     33 C         140.5713  143.1131  164.9232 C.ar    1  UNL1        0.0694
     34 CL        141.6467  142.4219  165.7077 Cl      1  UNL1       -0.0813
     35 C         140.5152  142.9612  163.4320 C.ar    1  UNL1        0.0815
     36 CL        141.5347  142.1179  162.7251 Cl      1  UNL1       -0.0801
@<TRIPOS>BOND
     1    18    19    1
     2    19    17    1
     3    17     5    1
     4     5     6   ar
     5     6    11    1
     6    11    12   ar
     7    12    13   ar
     8    13    14   ar
     9    14    15   ar
    10    15    16   ar
    11     6     7   ar
    12     7     8   ar
    13     8     1    1
    14     1     2    2
    15     1     3   am
    16     3    20    1
    17    20    21    1
    18    21    22    1
    19    22    23    1
    20    23    24    1
    21    24    25    1
    22    25    26    1
    23    26    29    1
    24    29    30   ar
    25    30    31   ar
    26    31    32   ar
    27    32    33   ar
    28    33    34    1
    29    33    35   ar
    30    35    36    1
    31    26    27    1
    32    27    28    1
    33     8     9   ar
    34     9    10    1
    35     9     5   ar
    36    16    11   ar
    37    28    23    1
    38    35    29   ar
    39     3     4    1
@<TRIPOS>MOLECULE
*****
 36 39 0 0 0
SMALL
GASTEIGER

@<TRIPOS>ATOM
      1 C         141.0545  142.9346  159.6477 C.2     1  UNL1        0.2470
      2 O         140.2364  142.0183  158.7867 O.2     1  UNL1       -0.2701
      3 N         142.1453  143.7629  159.0363 N.am    1  UNL1       -0.3008
      4 H         142.6822  144.3643  159.6013 H       1  UNL1        0.1497
      5 N         140.2670  143.8991  163.3240 N.ar    1  UNL1       -0.3305
      6 C         140.4568  142.4163  163.4476 C.ar    1  UNL1        0.0598
      7 C         140.7748  141.8745  162.0855 C.ar    1  UNL1        0.0228
      8 C         140.7817  143.0224  161.1201 C.ar    1  UNL1        0.0664
      9 C         140.4678  144.2738  161.8855 C.ar    1  UNL1        0.0418
     10 C         140.3717  145.6568  161.3129 C.3     1  UNL1        0.0502
     11 C         140.3476  141.6158  164.7115 C.ar    1  UNL1        0.0158
     12 C         141.4162  141.7186  165.7591 C.ar    1  UNL1        0.0014
     13 C         141.3070  140.9181  167.0229 C.ar    1  UNL1        0.0000
     14 C         140.1292  140.0149  167.2392 C.ar    1  UNL1        0.0000
     15 C         139.0605  139.9121  166.1916 C.ar    1  UNL1        0.0000
     16 C         139.1697  140.7125  164.9278 C.ar    1  UNL1        0.0014
     17 C         139.9348  144.8418  164.4424 C.3     1  UNL1        0.1057
     18 C         137.4637  144.0423  164.5079 C.3     1  UNL1        0.0021
     19 C         138.6311  144.7097  165.1724 C.3     1  UNL1        0.0245
     20 C         142.4181  143.6750  157.5639 C.3     1  UNL1        0.0911
     21 C         143.5550  142.8360  157.0605 C.3     1  UNL1        0.0386
     22 C         144.6883  142.4812  157.9768 C.3     1  UNL1        0.0739
     23 N         144.4156  141.7561  159.2613 N.3     1  UNL1       -0.2697
     24 C         143.8417  140.3705  159.2329 C.3     1  UNL1        0.0938
     25 C         143.5690  139.6452  160.5174 C.3     1  UNL1        0.1081
     26 N         143.8701  140.3056  161.8301 N.pl3   1  UNL1       -0.3040
     27 C         144.4440  141.6912  161.8583 C.3     1  UNL1        0.1081
     28 C         144.7168  142.4164  160.5739 C.3     1  UNL1        0.0938
     29 C         143.5974  139.5805  163.1145 C.ar    1  UNL1        0.0594
     30 C         144.5679  139.6820  164.2537 C.ar    1  UNL1        0.0154
     31 C         144.2951  138.9568  165.5381 C.ar    1  UNL1        0.0022
     32 C         143.0519  138.1301  165.6833 C.ar    1  UNL1        0.0123
     33 C         142.0815  138.0286  164.5441 C.ar    1  UNL1        0.0694
     34 CL        140.8384  137.2019  164.6892 Cl      1  UNL1       -0.0813
     35 C         142.3542  138.7538  163.2597 C.ar    1  UNL1        0.0815
     36 CL        141.3838  138.6523  162.1203 Cl      1  UNL1       -0.0801
@<TRIPOS>BOND
     1    18    19    1
     2    19    17    1
     3    17     5    1
     4     5     6   ar
     5     6    11    1
     6    11    12   ar
     7    12    13   ar
     8    13    14   ar
     9    14    15   ar
    10    15    16   ar
    11     6     7   ar
    12     7     8   ar
    13     8     1    1
    14     1     2    2
    15     1     3   am
    16     3    20    1
    17    20    21    1
    18    21    22    1
    19    22    23    1
    20    23    24    1
    21    24    25    1
    22    25    26    1
    23    26    29    1
    24    29    30   ar
    25    30    31   ar
    26    31    32   ar
    27    32    33   ar
    28    33    34    1
    29    33    35   ar
    30    35    36    1
    31    26    27    1
    32    27    28    1
    33     8     9   ar
    34     9    10    1
    35     9     5   ar
    36    16    11   ar
    37    28    23    1
    38    35    29   ar
    39     3     4    1
@<TRIPOS>MOLECULE
*****
 36 39 0 0 0
SMALL
GASTEIGER

@<TRIPOS>ATOM
      1 C         140.6818  144.9898  162.1896 C.2     1  UNL1        0.2470
      2 O         139.4633  145.8126  162.4866 O.2     1  UNL1       -0.2701
      3 N         141.2262  144.9329  160.7930 N.am    1  UNL1       -0.3008
      4 H         142.0259  144.3928  160.5981 H       1  UNL1        0.1497
      5 N         143.0605  143.2920  164.7440 N.ar    1  UNL1       -0.3305
      6 C         141.7259  142.7981  165.2181 C.ar    1  UNL1        0.0598
      7 C         140.6724  143.3740  164.3190 C.ar    1  UNL1        0.0228
      8 C         141.3559  144.2238  163.2891 C.ar    1  UNL1        0.0664
      9 C         142.8319  144.1731  163.5518 C.ar    1  UNL1        0.0418
     10 C         143.8929  144.8796  162.7611 C.3     1  UNL1        0.0502
     11 C         141.4867  141.8881  166.3864 C.ar    1  UNL1        0.0158
     12 C         142.2107  140.5775  166.4767 C.ar    1  UNL1        0.0014
     13 C         141.9715  139.6676  167.6449 C.ar    1  UNL1        0.0000
     14 C         141.0085  140.0682  168.7228 C.ar    1  UNL1        0.0000
     15 C         140.2845  141.3788  168.6326 C.ar    1  UNL1        0.0000
     16 C         140.5237  142.2888  167.4643 C.ar    1  UNL1        0.0014
     17 C         144.3903  142.9627  165.3548 C.3     1  UNL1        0.1057
     18 C         145.1013  140.7758  164.1457 C.3     1  UNL1        0.0021
     19 C         145.4032  142.1822  164.5707 C.3     1  UNL1        0.0245
     20 C         140.5521  145.6989  159.6935 C.3     1  UNL1        0.0911
     21 C         140.3347  145.0560  158.3558 C.3     1  UNL1        0.0386
     22 C         139.6983  143.7005  158.2697 C.3     1  UNL1        0.0739
     23 N         139.6141  142.8325  159.4901 N.3     1  UNL1       -0.2697
     24 C         140.7941  142.0042  159.9042 C.3     1  UNL1        0.0938
     25 C         140.7099  141.1361  161.1246 C.3     1  UNL1        0.1081
     26 N         139.4457  141.0964  161.9310 N.pl3   1  UNL1       -0.3040
     27 C         138.2657  141.9247  161.5168 C.3     1  UNL1        0.1081
     28 C         138.3499  142.7928  160.2964 C.3     1  UNL1        0.0938
     29 C         139.3615  140.2284  163.1514 C.ar    1  UNL1        0.0594
     30 C         138.4094  140.5783  164.2564 C.ar    1  UNL1        0.0154
     31 C         138.3252  139.7102  165.4768 C.ar    1  UNL1        0.0022
     32 C         139.1932  138.4923  165.5922 C.ar    1  UNL1        0.0123
     33 C         140.1453  138.1424  164.4873 C.ar    1  UNL1        0.0694
     34 CL        141.0133  136.9246  164.6027 Cl      1  UNL1       -0.0813
     35 C         140.2295  139.0104  163.2668 C.ar    1  UNL1        0.0815
     36 CL        141.1817  138.6607  162.1618 Cl      1  UNL1       -0.0801
@<TRIPOS>BOND
     1    18    19    1
     2    19    17    1
     3    17     5    1
     4     5     6   ar
     5     6    11    1
     6    11    12   ar
     7    12    13   ar
     8    13    14   ar
     9    14    15   ar
    10    15    16   ar
    11     6     7   ar
    12     7     8   ar
    13     8     1    1
    14     1     2    2
    15     1     3   am
    16     3    20    1
    17    20    21    1
    18    21    22    1
    19    22    23    1
    20    23    24    1
    21    24    25    1
    22    25    26    1
    23    26    29    1
    24    29    30   ar
    25    30    31   ar
    26    31    32   ar
    27    32    33   ar
    28    33    34    1
    29    33    35   ar
    30    35    36    1
    31    26    27    1
    32    27    28    1
    33     8     9   ar
    34     9    10    1
    35     9     5   ar
    36    16    11   ar
    37    28    23    1
    38    35    29   ar
    39     3     4    1
@<TRIPOS>MOLECULE
*****
 36 39 0 0 0
SMALL
GASTEIGER

@<TRIPOS>ATOM
      1 C         139.8519  139.7890  158.8302 C.2     1  UNL1        0.2470
      2 O         140.2394  140.7116  157.7128 O.2     1  UNL1       -0.2701
      3 N         139.8528  138.3050  158.6118 N.am    1  UNL1       -0.3008
      4 H         139.5985  137.6994  159.3452 H       1  UNL1        0.1497
      5 N         138.5427  141.7994  161.8813 N.ar    1  UNL1       -0.3305
      6 C         139.1887  140.6287  162.5612 C.ar    1  UNL1        0.0598
      7 C         139.7578  139.7331  161.5010 C.ar    1  UNL1        0.0228
      8 C         139.4635  140.3503  160.1659 C.ar    1  UNL1        0.0664
      9 C         138.7125  141.6274  160.4009 C.ar    1  UNL1        0.0418
     10 C         138.2182  142.5673  159.3416 C.3     1  UNL1        0.0502
     11 C         139.2542  140.3948  164.0414 C.ar    1  UNL1        0.0158
     12 C         138.2297  139.5264  164.7095 C.ar    1  UNL1        0.0014
     13 C         138.2952  139.2924  166.1896 C.ar    1  UNL1        0.0000
     14 C         139.3851  139.9269  167.0017 C.ar    1  UNL1        0.0000
     15 C         140.4096  140.7952  166.3337 C.ar    1  UNL1        0.0000
     16 C         140.3441  141.0292  164.8535 C.ar    1  UNL1        0.0014
     17 C         137.8488  142.9417  162.5623 C.3     1  UNL1        0.1057
     18 C         138.9300  144.4288  164.3979 C.3     1  UNL1        0.0021
     19 C         138.6243  144.1646  162.9533 C.3     1  UNL1        0.0245
     20 C         140.2413  137.7436  157.2761 C.3     1  UNL1        0.0911
     21 C         141.6873  137.6739  156.8837 C.3     1  UNL1        0.0386
     22 C         142.7258  137.3202  157.9066 C.3     1  UNL1        0.0739
     23 N         143.0480  138.2818  159.0119 N.3     1  UNL1       -0.2697
     24 C         143.4766  139.6819  158.6866 C.3     1  UNL1        0.0938
     25 C         143.7988  140.6436  159.7918 C.3     1  UNL1        0.1081
     26 N         143.6925  140.2050  161.2223 N.pl3   1  UNL1       -0.3040
     27 C         143.2639  138.8048  161.5475 C.3     1  UNL1        0.1081
     28 C         142.9417  137.8432  160.4423 C.3     1  UNL1        0.0938
     29 C         144.0147  141.1666  162.3275 C.ar    1  UNL1        0.0594
     30 C         145.2126  140.9328  163.1996 C.ar    1  UNL1        0.0154
     31 C         145.5348  141.8944  164.3048 C.ar    1  UNL1        0.0022
     32 C         144.6591  143.0898  164.5379 C.ar    1  UNL1        0.0123
     33 C         143.4613  143.3236  163.6659 C.ar    1  UNL1        0.0694
     34 CL        142.5857  144.5189  163.8990 Cl      1  UNL1       -0.0813
     35 C         143.1390  142.3620  162.5607 C.ar    1  UNL1        0.0815
     36 CL        141.9412  142.5957  161.6886 Cl      1  UNL1       -0.0801
@<TRIPOS>BOND
     1    18    19    1
     2    19    17    1
     3    17     5    1
     4     5     6   ar
     5     6    11    1
     6    11    12   ar
     7    12    13   ar
     8    13    14   ar
     9    14    15   ar
    10    15    16   ar
    11     6     7   ar
    12     7     8   ar
    13     8     1    1
    14     1     2    2
    15     1     3   am
    16     3    20    1
    17    20    21    1
    18    21    22    1
    19    22    23    1
    20    23    24    1
    21    24    25    1
    22    25    26    1
    23    26    29    1
    24    29    30   ar
    25    30    31   ar
    26    31    32   ar
    27    32    33   ar
    28    33    34    1
    29    33    35   ar
    30    35    36    1
    31    26    27    1
    32    27    28    1
    33     8     9   ar
    34     9    10    1
    35     9     5   ar
    36    16    11   ar
    37    28    23    1
    38    35    29   ar
    39     3     4    1
@<TRIPOS>MOLECULE
*****
 36 39 0 0 0
SMALL
GASTEIGER

@<TRIPOS>ATOM
      1 C         141.3148  143.7843  160.0397 C.2     1  UNL1        0.2470
      2 O         141.6563  145.2333  159.8558 O.2     1  UNL1       -0.2701
      3 N         141.4807  142.8241  158.8994 N.am    1  UNL1       -0.3008
      4 H         141.2566  141.8731  159.0202 H       1  UNL1        0.1497
      5 N         139.3795  142.3428  163.0799 N.ar    1  UNL1       -0.3305
      6 C         140.6734  142.7444  163.7238 C.ar    1  UNL1        0.0598
      7 C         141.5558  143.3332  162.6634 C.ar    1  UNL1        0.0228
      8 C         140.8073  143.2956  161.3640 C.ar    1  UNL1        0.0664
      9 C         139.4623  142.6835  161.6214 C.ar    1  UNL1        0.0418
     10 C         138.3885  142.4527  160.5998 C.3     1  UNL1        0.0502
     11 C         141.0234  142.5850  165.1737 C.ar    1  UNL1        0.0158
     12 C         140.0608  143.0366  166.2317 C.ar    1  UNL1        0.0014
     13 C         140.4108  142.8772  167.6815 C.ar    1  UNL1        0.0000
     14 C         141.7234  142.2662  168.0734 C.ar    1  UNL1        0.0000
     15 C         142.6861  141.8146  167.0154 C.ar    1  UNL1        0.0000
     16 C         142.3361  141.9740  165.5656 C.ar    1  UNL1        0.0014
     17 C         138.2085  141.7115  163.7727 C.3     1  UNL1        0.1057
     18 C         138.2011  139.8657  165.6011 C.3     1  UNL1        0.0021
     19 C         138.2557  140.2619  164.1554 C.3     1  UNL1        0.0245
     20 C         141.9881  143.3128  157.5751 C.3     1  UNL1        0.0911
     21 C         143.4619  143.4822  157.3528 C.3     1  UNL1        0.0386
     22 C         144.4110  142.3923  157.7541 C.3     1  UNL1        0.0739
     23 N         144.2538  141.7118  159.0815 N.3     1  UNL1       -0.2697
     24 C         143.7584  140.2974  159.1451 C.3     1  UNL1        0.0938
     25 C         143.6011  139.6167  160.4725 C.3     1  UNL1        0.1081
     26 N         143.9392  140.3504  161.7363 N.pl3   1  UNL1       -0.3040
     27 C         144.4346  141.7648  161.6727 C.3     1  UNL1        0.1081
     28 C         144.5919  142.4455  160.3453 C.3     1  UNL1        0.0938
     29 C         143.7819  139.6698  163.0637 C.ar    1  UNL1        0.0594
     30 C         144.9438  139.5926  164.0093 C.ar    1  UNL1        0.0154
     31 C         144.7865  138.9119  165.3367 C.ar    1  UNL1        0.0022
     32 C         143.4674  138.3085  165.7185 C.ar    1  UNL1        0.0123
     33 C         142.3055  138.3857  164.7729 C.ar    1  UNL1        0.0694
     34 CL        140.9864  137.7824  165.1548 Cl      1  UNL1       -0.0813
     35 C         142.4628  139.0664  163.4456 C.ar    1  UNL1        0.0815
     36 CL        141.3010  139.1437  162.4999 Cl      1  UNL1       -0.0801
@<TRIPOS>BOND
     1    18    19    1
     2    19    17    1
     3    17     5    1
     4     5     6   ar
     5     6    11    1
     6    11    12   ar
     7    12    13   ar
     8    13    14   ar
     9    14    15   ar
    10    15    16   ar
    11     6     7   ar
    12     7     8   ar
    13     8     1    1
    14     1     2    2
    15     1     3   am
    16     3    20    1
    17    20    21    1
    18    21    22    1
    19    22    23    1
    20    23    24    1
    21    24    25    1
    22    25    26    1
    23    26    29    1
    24    29    30   ar
    25    30    31   ar
    26    31    32   ar
    27    32    33   ar
    28    33    34    1
    29    33    35   ar
    30    35    36    1
    31    26    27    1
    32    27    28    1
    33     8     9   ar
    34     9    10    1
    35     9     5   ar
    36    16    11   ar
    37    28    23    1
    38    35    29   ar
    39     3     4    1
@<TRIPOS>MOLECULE
*****
 36 39 0 0 0
SMALL
GASTEIGER

@<TRIPOS>ATOM
      1 C         138.8728  139.4505  159.3879 C.2     1  UNL1        0.2470
      2 O         137.9209  139.9888  158.3612 O.2     1  UNL1       -0.2701
      3 N         139.9441  138.4820  158.9825 N.am    1  UNL1       -0.3008
      4 H         140.5689  138.1287  159.6563 H       1  UNL1        0.1497
      5 N         138.4126  139.8367  163.2225 N.ar    1  UNL1       -0.3305
      6 C         138.7271  141.2484  162.8247 C.ar    1  UNL1        0.0598
      7 C         138.9378  141.2755  161.3398 C.ar    1  UNL1        0.0228
      8 C         138.7535  139.8807  160.8199 C.ar    1  UNL1        0.0664
      9 C         138.4289  138.9914  161.9835 C.ar    1  UNL1        0.0418
     10 C         138.1666  137.5159  161.9194 C.3     1  UNL1        0.0502
     11 C         138.8154  142.4262  163.7494 C.ar    1  UNL1        0.0158
     12 C         137.6588  143.3736  163.8698 C.ar    1  UNL1        0.0014
     13 C         137.7472  144.5514  164.7945 C.ar    1  UNL1        0.0000
     14 C         138.9922  144.7816  165.5989 C.ar    1  UNL1        0.0000
     15 C         140.1488  143.8342  165.4785 C.ar    1  UNL1        0.0000
     16 C         140.0604  142.6565  164.5538 C.ar    1  UNL1        0.0014
     17 C         138.1312  139.3550  164.6149 C.3     1  UNL1        0.1057
     18 C         139.4691  139.7905  166.7990 C.3     1  UNL1        0.0021
     19 C         139.2662  139.0114  165.5334 C.3     1  UNL1        0.0245
     20 C         140.0634  138.0519  157.5504 C.3     1  UNL1        0.0911
     21 C         141.4124  137.7506  156.9677 C.3     1  UNL1        0.0386
     22 C         142.5662  137.4336  157.8721 C.3     1  UNL1        0.0739
     23 N         142.9453  138.3867  158.9666 N.3     1  UNL1       -0.2697
     24 C         143.3622  139.7877  158.6300 C.3     1  UNL1        0.0938
     25 C         143.7413  140.7409  159.7244 C.3     1  UNL1        0.1081
     26 N         143.7035  140.2930  161.1555 N.pl3   1  UNL1       -0.3040
     27 C         143.2866  138.8920  161.4920 C.3     1  UNL1        0.1081
     28 C         142.9075  137.9388  160.3976 C.3     1  UNL1        0.0938
     29 C         144.0826  141.2462  162.2499 C.ar    1  UNL1        0.0594
     30 C         145.2126  140.9115  163.1778 C.ar    1  UNL1        0.0154
     31 C         145.5917  141.8646  164.2723 C.ar    1  UNL1        0.0022
     32 C         144.8408  143.1524  164.4388 C.ar    1  UNL1        0.0123
     33 C         143.7108  143.4871  163.5109 C.ar    1  UNL1        0.0694
     34 CL        142.9599  144.7748  163.6774 Cl      1  UNL1       -0.0813
     35 C         143.3317  142.5340  162.4165 C.ar    1  UNL1        0.0815
     36 CL        142.2016  142.8685  161.4885 Cl      1  UNL1       -0.0801
@<TRIPOS>BOND
     1    18    19    1
     2    19    17    1
     3    17     5    1
     4     5     6   ar
     5     6    11    1
     6    11    12   ar
     7    12    13   ar
     8    13    14   ar
     9    14    15   ar
    10    15    16   ar
    11     6     7   ar
    12     7     8   ar
    13     8     1    1
    14     1     2    2
    15     1     3   am
    16     3    20    1
    17    20    21    1
    18    21    22    1
    19    22    23    1
    20    23    24    1
    21    24    25    1
    22    25    26    1
    23    26    29    1
    24    29    30   ar
    25    30    31   ar
    26    31    32   ar
    27    32    33   ar
    28    33    34    1
    29    33    35   ar
    30    35    36    1
    31    26    27    1
    32    27    28    1
    33     8     9   ar
    34     9    10    1
    35     9     5   ar
    36    16    11   ar
    37    28    23    1
    38    35    29   ar
    39     3     4    1
@<TRIPOS>MOLECULE
*****
 36 39 0 0 0
SMALL
GASTEIGER

@<TRIPOS>ATOM
      1 C         142.6961  142.6096  158.6831 C.2     1  UNL1        0.2470
      2 O         143.1294  143.5932  157.6367 O.2     1  UNL1       -0.2701
      3 N         142.5456  141.1590  158.3322 N.am    1  UNL1       -0.3008
      4 H         142.2613  140.5135  159.0189 H       1  UNL1        0.1497
      5 N         141.5185  144.3229  161.9607 N.ar    1  UNL1       -0.3305
      6 C         142.4382  143.2675  162.4996 C.ar    1  UNL1        0.0598
      7 C         142.9912  142.4972  161.3374 C.ar    1  UNL1        0.0228
      8 C         142.4134  143.0766  160.0802 C.ar    1  UNL1        0.0664
      9 C         141.5032  144.2050  160.4655 C.ar    1  UNL1        0.0418
     10 C         140.7160  145.0645  159.5213 C.3     1  UNL1        0.0502
     11 C         142.7500  143.0249  163.9467 C.ar    1  UNL1        0.0158
     12 C         141.7687  142.2920  164.8127 C.ar    1  UNL1        0.0014
     13 C         142.0806  142.0495  166.2597 C.ar    1  UNL1        0.0000
     14 C         143.3736  142.5399  166.8407 C.ar    1  UNL1        0.0000
     15 C         144.3548  143.2727  165.9747 C.ar    1  UNL1        0.0000
     16 C         144.0430  143.5153  164.5277 C.ar    1  UNL1        0.0014
     17 C         140.7493  145.3211  162.7743 C.3     1  UNL1        0.1057
     18 C         139.1244  144.9065  164.7587 C.3     1  UNL1        0.0021
     19 C         139.3801  144.9789  163.2825 C.3     1  UNL1        0.0245
     20 C         142.8284  140.6921  156.9351 C.3     1  UNL1        0.0911
     21 C         143.2146  139.2644  156.6852 C.3     1  UNL1        0.0386
     22 C         142.3647  138.1522  157.2241 C.3     1  UNL1        0.0739
     23 N         141.7187  138.2870  158.5712 N.3     1  UNL1       -0.2697
     24 C         140.2393  138.5125  158.6741 C.3     1  UNL1        0.0938
     25 C         139.5931  138.6473  160.0212 C.3     1  UNL1        0.1081
     26 N         140.4264  138.5566  161.2652 N.pl3   1  UNL1       -0.3040
     27 C         141.9058  138.3310  161.1620 C.3     1  UNL1        0.1081
     28 C         142.5519  138.1962  159.8151 C.3     1  UNL1        0.0938
     29 C         139.7803  138.6913  162.6121 C.ar    1  UNL1        0.0594
     30 C         139.6097  137.4844  163.4862 C.ar    1  UNL1        0.0154
     31 C         138.9636  137.6192  164.8332 C.ar    1  UNL1        0.0022
     32 C         138.4881  138.9609  165.3061 C.ar    1  UNL1        0.0123
     33 C         138.6587  140.1679  164.4320 C.ar    1  UNL1        0.0694
     34 CL        138.1832  141.5096  164.9048 Cl      1  UNL1       -0.0813
     35 C         139.3048  140.0331  163.0850 C.ar    1  UNL1        0.0815
     36 CL        139.4755  141.2400  162.2108 Cl      1  UNL1       -0.0801
@<TRIPOS>BOND
     1    18    19    1
     2    19    17    1
     3    17     5    1
     4     5     6   ar
     5     6    11    1
     6    11    12   ar
     7    12    13   ar
     8    13    14   ar
     9    14    15   ar
    10    15    16   ar
    11     6     7   ar
    12     7     8   ar
    13     8     1    1
    14     1     2    2
    15     1     3   am
    16     3    20    1
    17    20    21    1
    18    21    22    1
    19    22    23    1
    20    23    24    1
    21    24    25    1
    22    25    26    1
    23    26    29    1
    24    29    30   ar
    25    30    31   ar
    26    31    32   ar
    27    32    33   ar
    28    33    34    1
    29    33    35   ar
    30    35    36    1
    31    26    27    1
    32    27    28    1
    33     8     9   ar
    34     9    10    1
    35     9     5   ar
    36    16    11   ar
    37    28    23    1
    38    35    29   ar
    39     3     4    1
