@<TRIPOS>MOLECULE
*****
 27 30 0 0 0
SMALL
GASTEIGER

@<TRIPOS>ATOM
      1 C         142.2662  140.4259  169.9467 C.ar    1  UNL1        0.0503
      2 C         141.6772  141.1327  171.1314 C.ar    1  UNL1        0.0351
      3 C         140.6535  142.2102  170.9291 C.ar    1  UNL1        0.1007
      4 N         140.2187  142.5809  169.5422 N.ar    1  UNL1       -0.2372
      5 C         140.8076  141.8741  168.3576 C.ar    1  UNL1        0.1135
      6 S         140.5759  142.0224  166.8830 S.2     1  UNL1       -0.0616
      7 C         141.4565  141.0366  166.1739 C.ar    1  UNL1        0.1051
      8 C         141.6520  140.7309  164.7185 C.ar    1  UNL1        0.2733
      9 O         140.8761  141.4885  163.6821 O.2     1  UNL1       -0.2660
     10 N         142.6234  139.6676  164.2993 N.ar    1  UNL1       -0.2563
     11 C         143.3993  138.9100  165.3357 C.ar    1  UNL1        0.1851
     12 N         143.2038  139.2157  166.7911 N.ar    1  UNL1       -0.2243
     13 C         142.2323  140.2790  167.2103 C.ar    1  UNL1        0.0968
     14 C         141.8314  140.7965  168.5598 C.ar    1  UNL1        0.0553
     15 C         142.8190  139.3620  162.8439 C.ar    1  UNL1        0.0685
     16 C         142.0820  138.2184  162.2121 C.ar    1  UNL1        0.0208
     17 C         142.2775  137.9128  160.7566 C.ar    1  UNL1        0.0384
     18 C         143.2100  138.7506  159.9330 C.ar    1  UNL1        0.1388
     19 C         143.9470  139.8942  160.5648 C.ar    1  UNL1        0.0384
     20 C         143.7514  140.1998  162.0203 C.ar    1  UNL1        0.0208
     21 O         143.4055  138.4449  158.4776 O.3     1  UNL1       -0.4714
     22 C         142.6439  137.3220  157.8381 C.3     1  UNL1        0.2525
     23 N         143.2899  139.3484  170.1490 N.pl3   1  UNL1       -0.3219
     24 H         144.2489  139.5637  170.0925 H       1  UNL1        0.1477
     25 C         142.8525  137.9428  170.4372 C.3     1  UNL1        0.1660
     26 C         144.8904  135.8443  171.1029 C.1     1  UNL1       -0.0124
     27 C         143.8715  136.8936  170.7701 C.1     1  UNL1       -0.0559
@<TRIPOS>BOND
     1    26    27    3
     2    27    25    1
     3    25    23    1
     4    23     1    1
     5     1     2   ar
     6     2     3   ar
     7     3     4   ar
     8     4     5   ar
     9     5     6   ar
    10     6     7   ar
    11     7     8   ar
    12     8     9    2
    13     8    10   ar
    14    10    15    1
    15    15    16   ar
    16    16    17   ar
    17    17    18   ar
    18    18    21    1
    19    21    22    1
    20    18    19   ar
    21    19    20   ar
    22    10    11   ar
    23    11    12   ar
    24    12    13   ar
    25    13    14   ar
    26    14     1   ar
    27    14     5   ar
    28    13     7   ar
    29    20    15   ar
    30    23    24    1
@<TRIPOS>MOLECULE
*****
 27 30 0 0 0
SMALL
GASTEIGER

@<TRIPOS>ATOM
      1 C         141.0120  140.4017  169.4301 C.ar    1  UNL1        0.0503
      2 C         140.0187  140.2649  170.5456 C.ar    1  UNL1        0.0351
      3 C         138.6186  139.8135  170.2521 C.ar    1  UNL1        0.1007
      4 N         138.2120  139.4990  168.8430 N.ar    1  UNL1       -0.2372
      5 C         139.2054  139.6357  167.7274 C.ar    1  UNL1        0.1135
      6 S         139.0949  139.3987  166.2504 S.2     1  UNL1       -0.0616
      7 C         140.4267  139.7035  165.6311 C.ar    1  UNL1        0.1051
      8 C         140.9099  139.6486  164.2121 C.ar    1  UNL1        0.2733
      9 O         139.9764  139.2231  163.1178 O.2     1  UNL1       -0.2660
     10 N         142.3267  140.0191  163.8875 N.ar    1  UNL1       -0.2563
     11 C         143.2602  140.4446  164.9818 C.ar    1  UNL1        0.1851
     12 N         142.7769  140.4995  166.4008 N.ar    1  UNL1       -0.2243
     13 C         141.3602  140.1289  166.7254 C.ar    1  UNL1        0.0968
     14 C         140.6054  140.0871  168.0210 C.ar    1  UNL1        0.0553
     15 C         142.8099  139.9642  162.4685 C.ar    1  UNL1        0.0685
     16 C         142.6772  141.1683  161.5838 C.ar    1  UNL1        0.0208
     17 C         143.1604  141.1134  160.1649 C.ar    1  UNL1        0.0384
     18 C         143.7764  139.8544  159.6306 C.ar    1  UNL1        0.1388
     19 C         143.9092  138.6504  160.5153 C.ar    1  UNL1        0.0384
     20 C         143.4259  138.7053  161.9342 C.ar    1  UNL1        0.0208
     21 O         144.2597  139.7995  158.2116 O.3     1  UNL1       -0.4714
     22 C         144.6398  141.0637  157.4994 C.3     1  UNL1        0.2525
     23 N         142.4121  140.8530  169.7237 N.pl3   1  UNL1       -0.3219
     24 H         143.1424  140.1944  169.7686 H       1  UNL1        0.1477
     25 C         142.6994  142.3079  169.9488 C.3     1  UNL1        0.1660
     26 C         140.4503  144.2930  169.9851 C.1     1  UNL1       -0.0124
     27 C         141.5749  143.3004  169.9670 C.1     1  UNL1       -0.0559
@<TRIPOS>BOND
     1    26    27    3
     2    27    25    1
     3    25    23    1
     4    23     1    1
     5     1     2   ar
     6     2     3   ar
     7     3     4   ar
     8     4     5   ar
     9     5     6   ar
    10     6     7   ar
    11     7     8   ar
    12     8     9    2
    13     8    10   ar
    14    10    15    1
    15    15    16   ar
    16    16    17   ar
    17    17    18   ar
    18    18    21    1
    19    21    22    1
    20    18    19   ar
    21    19    20   ar
    22    10    11   ar
    23    11    12   ar
    24    12    13   ar
    25    13    14   ar
    26    14     1   ar
    27    14     5   ar
    28    13     7   ar
    29    20    15   ar
    30    23    24    1
@<TRIPOS>MOLECULE
*****
 27 30 0 0 0
SMALL
GASTEIGER

@<TRIPOS>ATOM
      1 C         137.9676  141.9691  163.2052 C.ar    1  UNL1        0.0503
      2 C         137.6459  143.2828  163.8537 C.ar    1  UNL1        0.0351
      3 C         138.0624  144.5654  163.1969 C.ar    1  UNL1        0.1007
      4 N         138.8007  144.5343  161.8915 N.ar    1  UNL1       -0.2372
      5 C         139.1224  143.2205  161.2430 C.ar    1  UNL1        0.1135
      6 S         139.8331  142.8784  159.9672 S.2     1  UNL1       -0.0616
      7 C         139.8558  141.3844  159.8354 C.ar    1  UNL1        0.1051
      8 C         140.4209  140.4781  158.7822 C.ar    1  UNL1        0.2733
      9 O         141.1177  141.0593  157.5877 O.2     1  UNL1       -0.2660
     10 N         140.2893  138.9906  158.9234 N.ar    1  UNL1       -0.2563
     11 C         139.5926  138.4094  160.1178 C.ar    1  UNL1        0.1851
     12 N         139.0275  139.3157  161.1711 N.ar    1  UNL1       -0.2243
     13 C         139.1591  140.8032  161.0299 C.ar    1  UNL1        0.0968
     14 C         138.7058  141.9380  161.8998 C.ar    1  UNL1        0.0553
     15 C         140.8544  138.0843  157.8701 C.ar    1  UNL1        0.0685
     16 C         142.2992  137.6847  157.9210 C.ar    1  UNL1        0.0208
     17 C         142.8643  136.7784  156.8678 C.ar    1  UNL1        0.0384
     18 C         141.9845  136.2718  155.7637 C.ar    1  UNL1        0.1388
     19 C         140.5396  136.6714  155.7127 C.ar    1  UNL1        0.0384
     20 C         139.9746  137.5777  156.7660 C.ar    1  UNL1        0.0208
     21 O         142.5496  135.3655  154.7104 O.3     1  UNL1       -0.4714
     22 C         143.0062  133.9842  155.0758 C.3     1  UNL1        0.2525
     23 N         137.5510  140.6865  163.8620 N.pl3   1  UNL1       -0.3219
     24 H         136.6327  140.3505  163.7477 H       1  UNL1        0.1477
     25 C         138.5335  139.9158  164.6930 C.3     1  UNL1        0.1660
     26 C         137.6066  138.4614  167.1477 C.1     1  UNL1       -0.0124
     27 C         138.0701  139.1886  165.9204 C.1     1  UNL1       -0.0559
@<TRIPOS>BOND
     1    26    27    3
     2    27    25    1
     3    25    23    1
     4    23     1    1
     5     1     2   ar
     6     2     3   ar
     7     3     4   ar
     8     4     5   ar
     9     5     6   ar
    10     6     7   ar
    11     7     8   ar
    12     8     9    2
    13     8    10   ar
    14    10    15    1
    15    15    16   ar
    16    16    17   ar
    17    17    18   ar
    18    18    21    1
    19    21    22    1
    20    18    19   ar
    21    19    20   ar
    22    10    11   ar
    23    11    12   ar
    24    12    13   ar
    25    13    14   ar
    26    14     1   ar
    27    14     5   ar
    28    13     7   ar
    29    20    15   ar
    30    23    24    1
@<TRIPOS>MOLECULE
*****
 27 30 0 0 0
SMALL
GASTEIGER

@<TRIPOS>ATOM
      1 C         143.2970  142.6461  159.3253 C.ar    1  UNL1        0.0503
      2 C         143.8279  142.3575  157.9524 C.ar    1  UNL1        0.0351
      3 C         144.2721  140.9696  157.5966 C.ar    1  UNL1        0.1007
      4 N         144.1853  139.8705  158.6135 N.ar    1  UNL1       -0.2372
      5 C         143.6544  140.1592  159.9864 C.ar    1  UNL1        0.1135
      6 S         143.4525  139.2853  161.1887 S.2     1  UNL1       -0.0616
      7 C         142.8835  140.1330  162.2876 C.ar    1  UNL1        0.1051
      8 C         142.4824  139.8127  163.6971 C.ar    1  UNL1        0.2733
      9 O         142.6321  138.4149  164.2203 O.2     1  UNL1       -0.2660
     10 N         141.9316  140.8902  164.5834 N.ar    1  UNL1       -0.2563
     11 C         141.7819  142.2880  164.0602 C.ar    1  UNL1        0.1851
     12 N         142.1830  142.6083  162.6508 N.ar    1  UNL1       -0.2243
     13 C         142.7338  141.5308  161.7645 C.ar    1  UNL1        0.0968
     14 C         143.2102  141.5470  160.3422 C.ar    1  UNL1        0.0553
     15 C         141.5305  140.5699  165.9929 C.ar    1  UNL1        0.0685
     16 C         142.5753  140.4609  167.0636 C.ar    1  UNL1        0.0208
     17 C         142.1742  140.1406  168.4731 C.ar    1  UNL1        0.0384
     18 C         140.7283  139.9293  168.8117 C.ar    1  UNL1        0.1388
     19 C         139.6836  140.0383  167.7409 C.ar    1  UNL1        0.0384
     20 C         140.0847  140.3586  166.3315 C.ar    1  UNL1        0.0208
     21 O         140.3272  139.6090  170.2211 O.3     1  UNL1       -0.4714
     22 C         140.6814  140.5502  171.3340 C.3     1  UNL1        0.2525
     23 N         142.8528  144.0340  159.6811 N.pl3   1  UNL1       -0.3219
     24 H         143.5076  144.6909  160.0113 H       1  UNL1        0.1477
     25 C         141.4111  144.4209  159.5340 C.3     1  UNL1        0.1660
     26 C         140.0482  145.9826  161.7028 C.1     1  UNL1       -0.0124
     27 C         140.7297  145.2017  160.6184 C.1     1  UNL1       -0.0559
@<TRIPOS>BOND
     1    26    27    3
     2    27    25    1
     3    25    23    1
     4    23     1    1
     5     1     2   ar
     6     2     3   ar
     7     3     4   ar
     8     4     5   ar
     9     5     6   ar
    10     6     7   ar
    11     7     8   ar
    12     8     9    2
    13     8    10   ar
    14    10    15    1
    15    15    16   ar
    16    16    17   ar
    17    17    18   ar
    18    18    21    1
    19    21    22    1
    20    18    19   ar
    21    19    20   ar
    22    10    11   ar
    23    11    12   ar
    24    12    13   ar
    25    13    14   ar
    26    14     1   ar
    27    14     5   ar
    28    13     7   ar
    29    20    15   ar
    30    23    24    1
@<TRIPOS>MOLECULE
*****
 27 30 0 0 0
SMALL
GASTEIGER

@<TRIPOS>ATOM
      1 C         140.4254  141.4562  167.8324 C.ar    1  UNL1        0.0503
      2 C         139.9898  141.3188  169.2611 C.ar    1  UNL1        0.0351
      3 C         138.9883  140.2691  169.6422 C.ar    1  UNL1        0.1007
      4 N         138.4225  139.3568  168.5946 N.ar    1  UNL1       -0.2372
      5 C         138.8582  139.4942  167.1659 C.ar    1  UNL1        0.1135
      6 S         138.4773  138.7443  165.9239 S.2     1  UNL1       -0.0616
      7 C         139.2433  139.3305  164.7752 C.ar    1  UNL1        0.1051
      8 C         139.2732  138.9952  163.3134 C.ar    1  UNL1        0.2733
      9 O         138.4189  137.8830  162.7814 O.2     1  UNL1       -0.2660
     10 N         140.1575  139.7721  162.3837 N.ar    1  UNL1       -0.2563
     11 C         141.0119  140.8843  162.9158 C.ar    1  UNL1        0.1851
     12 N         140.9819  141.2196  164.3775 N.ar    1  UNL1       -0.2243
     13 C         140.0976  140.4427  165.3072 C.ar    1  UNL1        0.0968
     14 C         139.8596  140.5439  166.7848 C.ar    1  UNL1        0.0553
     15 C         140.1875  139.4368  160.9219 C.ar    1  UNL1        0.0685
     16 C         141.3451  138.6724  160.3514 C.ar    1  UNL1        0.0208
     17 C         141.3750  138.3371  158.8896 C.ar    1  UNL1        0.0384
     18 C         140.2474  138.7663  157.9985 C.ar    1  UNL1        0.1388
     19 C         139.0898  139.5308  158.5691 C.ar    1  UNL1        0.0384
     20 C         139.0598  139.8660  160.0309 C.ar    1  UNL1        0.0208
     21 O         140.2773  138.4310  156.5368 O.3     1  UNL1       -0.4714
     22 C         139.4522  137.2941  156.0110 C.3     1  UNL1        0.2525
     23 N         141.4269  142.5059  167.4512 N.pl3   1  UNL1       -0.3219
     24 H         141.1323  143.4309  167.2877 H       1  UNL1        0.1477
     25 C         142.8771  142.1461  167.3192 C.3     1  UNL1        0.1660
     26 C         144.5151  143.3119  165.0925 C.1     1  UNL1       -0.0124
     27 C         143.6961  142.7290  166.2059 C.1     1  UNL1       -0.0559
@<TRIPOS>BOND
     1    26    27    3
     2    27    25    1
     3    25    23    1
     4    23     1    1
     5     1     2   ar
     6     2     3   ar
     7     3     4   ar
     8     4     5   ar
     9     5     6   ar
    10     6     7   ar
    11     7     8   ar
    12     8     9    2
    13     8    10   ar
    14    10    15    1
    15    15    16   ar
    16    16    17   ar
    17    17    18   ar
    18    18    21    1
    19    21    22    1
    20    18    19   ar
    21    19    20   ar
    22    10    11   ar
    23    11    12   ar
    24    12    13   ar
    25    13    14   ar
    26    14     1   ar
    27    14     5   ar
    28    13     7   ar
    29    20    15   ar
    30    23    24    1
@<TRIPOS>MOLECULE
*****
 27 30 0 0 0
SMALL
GASTEIGER

@<TRIPOS>ATOM
      1 C         141.2409  140.3009  166.5089 C.ar    1  UNL1        0.0503
      2 C         141.5869  140.1146  167.9565 C.ar    1  UNL1        0.0351
      3 C         142.6184  140.9930  168.6002 C.ar    1  UNL1        0.1007
      4 N         143.3040  142.0577  167.7964 N.ar    1  UNL1       -0.2372
      5 C         142.9581  142.2441  166.3488 C.ar    1  UNL1        0.1135
      6 S         143.4633  143.2025  165.3114 S.2     1  UNL1       -0.0616
      7 C         142.7441  142.9164  164.0265 C.ar    1  UNL1        0.1051
      8 C         142.8313  143.5430  162.6664 C.ar    1  UNL1        0.2733
      9 O         143.7811  144.6782  162.4231 O.2     1  UNL1       -0.2660
     10 N         141.9688  143.0343  161.5496 N.ar    1  UNL1       -0.2563
     11 C         141.0190  141.8991  161.7930 C.ar    1  UNL1        0.1851
     12 N         140.9318  141.2726  163.1531 N.ar    1  UNL1       -0.2243
     13 C         141.7943  141.7812  164.2698 C.ar    1  UNL1        0.0968
     14 C         141.9265  141.3657  165.7051 C.ar    1  UNL1        0.0553
     15 C         142.0560  143.6609  160.1895 C.ar    1  UNL1        0.0685
     16 C         141.2120  144.8559  159.8588 C.ar    1  UNL1        0.0208
     17 C         141.2992  145.4825  158.4987 C.ar    1  UNL1        0.0384
     18 C         142.2304  144.9139  157.4694 C.ar    1  UNL1        0.1388
     19 C         143.0744  143.7189  157.8002 C.ar    1  UNL1        0.0384
     20 C         142.9872  143.0923  159.1603 C.ar    1  UNL1        0.0208
     21 O         142.3176  145.5405  156.1093 O.3     1  UNL1       -0.4714
     22 C         141.1383  145.4910  155.1837 C.3     1  UNL1        0.2525
     23 N         140.2094  139.4225  165.8652 N.pl3   1  UNL1       -0.3219
     24 H         140.4899  138.6670  165.2998 H       1  UNL1        0.1477
     25 C         138.7506  139.6953  166.0830 C.3     1  UNL1        0.1660
     26 C         137.0307  137.6531  167.4510 C.1     1  UNL1       -0.0124
     27 C         137.8907  138.6742  166.7670 C.1     1  UNL1       -0.0559
@<TRIPOS>BOND
     1    26    27    3
     2    27    25    1
     3    25    23    1
     4    23     1    1
     5     1     2   ar
     6     2     3   ar
     7     3     4   ar
     8     4     5   ar
     9     5     6   ar
    10     6     7   ar
    11     7     8   ar
    12     8     9    2
    13     8    10   ar
    14    10    15    1
    15    15    16   ar
    16    16    17   ar
    17    17    18   ar
    18    18    21    1
    19    21    22    1
    20    18    19   ar
    21    19    20   ar
    22    10    11   ar
    23    11    12   ar
    24    12    13   ar
    25    13    14   ar
    26    14     1   ar
    27    14     5   ar
    28    13     7   ar
    29    20    15   ar
    30    23    24    1
@<TRIPOS>MOLECULE
*****
 27 30 0 0 0
SMALL
GASTEIGER

@<TRIPOS>ATOM
      1 C         140.2228  138.6198  158.9885 C.ar    1  UNL1        0.0503
      2 C         140.5139  138.0964  157.6133 C.ar    1  UNL1        0.0351
      3 C         141.8976  137.6343  157.2641 C.ar    1  UNL1        0.1007
      4 N         142.9901  137.6956  158.2900 N.ar    1  UNL1       -0.2372
      5 C         142.6990  138.2190  159.6652 C.ar    1  UNL1        0.1135
      6 S         143.5665  138.3973  160.8758 S.2     1  UNL1       -0.0616
      7 C         142.7191  138.9696  161.9732 C.ar    1  UNL1        0.1051
      8 C         143.0346  139.3536  163.3885 C.ar    1  UNL1        0.2733
      9 O         144.4260  139.1783  163.9209 O.2     1  UNL1       -0.2660
     10 N         141.9588  139.9131  164.2714 N.ar    1  UNL1       -0.2563
     11 C         140.5674  140.0885  163.7391 C.ar    1  UNL1        0.1851
     12 N         140.2519  139.7044  162.3238 N.ar    1  UNL1       -0.2243
     13 C         141.3278  139.1450  161.4409 C.ar    1  UNL1        0.0968
     14 C         141.3153  138.6811  160.0145 C.ar    1  UNL1        0.0553
     15 C         142.2743  140.2971  165.6867 C.ar    1  UNL1        0.0685
     16 C         142.5857  141.7250  166.0247 C.ar    1  UNL1        0.0208
     17 C         142.9012  142.1090  167.4400 C.ar    1  UNL1        0.0384
     18 C         142.9053  141.0652  168.5172 C.ar    1  UNL1        0.1388
     19 C         142.5939  139.6374  168.1792 C.ar    1  UNL1        0.0384
     20 C         142.2783  139.2534  166.7639 C.ar    1  UNL1        0.0208
     21 O         143.2208  141.4493  169.9325 O.3     1  UNL1       -0.4714
     22 C         142.2702  142.3159  170.7041 C.3     1  UNL1        0.2525
     23 N         138.8391  139.0818  159.3378 N.pl3   1  UNL1       -0.3219
     24 H         138.2209  138.4750  159.8055 H       1  UNL1        0.1477
     25 C         138.3974  140.4685  158.9744 C.3     1  UNL1        0.1660
     26 C         138.4055  142.6369  161.0476 C.1     1  UNL1       -0.0124
     27 C         138.4015  141.5527  160.0110 C.1     1  UNL1       -0.0559
@<TRIPOS>BOND
     1    26    27    3
     2    27    25    1
     3    25    23    1
     4    23     1    1
     5     1     2   ar
     6     2     3   ar
     7     3     4   ar
     8     4     5   ar
     9     5     6   ar
    10     6     7   ar
    11     7     8   ar
    12     8     9    2
    13     8    10   ar
    14    10    15    1
    15    15    16   ar
    16    16    17   ar
    17    17    18   ar
    18    18    21    1
    19    21    22    1
    20    18    19   ar
    21    19    20   ar
    22    10    11   ar
    23    11    12   ar
    24    12    13   ar
    25    13    14   ar
    26    14     1   ar
    27    14     5   ar
    28    13     7   ar
    29    20    15   ar
    30    23    24    1
@<TRIPOS>MOLECULE
*****
 27 30 0 0 0
SMALL
GASTEIGER

@<TRIPOS>ATOM
      1 C         138.8956  142.7792  159.2911 C.ar    1  UNL1        0.0503
      2 C         138.2929  142.5479  157.9372 C.ar    1  UNL1        0.0351
      3 C         137.6851  141.2176  157.6041 C.ar    1  UNL1        0.1007
      4 N         137.6801  140.1186  158.6250 N.ar    1  UNL1       -0.2372
      5 C         138.2828  140.3500  159.9789 C.ar    1  UNL1        0.1135
      6 S         138.4233  139.4625  161.1800 S.2     1  UNL1       -0.0616
      7 C         139.1178  140.2443  162.2554 C.ar    1  UNL1        0.1051
      8 C         139.5246  139.8852  163.6538 C.ar    1  UNL1        0.2733
      9 O         139.2358  138.5145  164.1904 O.2     1  UNL1       -0.2660
     10 N         140.2201  140.8967  164.5158 N.ar    1  UNL1       -0.2563
     11 C         140.5089  142.2674  163.9792 C.ar    1  UNL1        0.1851
     12 N         140.1022  142.6265  162.5808 N.ar    1  UNL1       -0.2243
     13 C         139.4066  141.6149  161.7189 C.ar    1  UNL1        0.0968
     14 C         138.8906  141.6803  160.3119 C.ar    1  UNL1        0.0553
     15 C         140.6269  140.5376  165.9142 C.ar    1  UNL1        0.0685
     16 C         142.0405  140.1266  166.2020 C.ar    1  UNL1        0.0208
     17 C         142.4472  139.7675  167.6004 C.ar    1  UNL1        0.0384
     18 C         141.4404  139.8194  168.7110 C.ar    1  UNL1        0.1388
     19 C         140.0268  140.2304  168.4232 C.ar    1  UNL1        0.0384
     20 C         139.6200  140.5895  167.0248 C.ar    1  UNL1        0.0208
     21 O         141.8472  139.4603  170.1094 O.3     1  UNL1       -0.4714
     22 C         142.1190  140.5418  171.1126 C.3     1  UNL1        0.2525
     23 N         139.5033  144.1095  159.6241 N.pl3   1  UNL1       -0.3219
     24 H         138.9306  144.8498  159.9294 H       1  UNL1        0.1477
     25 C         140.9837  144.3120  159.4920 C.3     1  UNL1        0.1660
     26 C         142.0819  145.8959  157.1930 C.1     1  UNL1       -0.0124
     27 C         141.5328  145.1039  158.3425 C.1     1  UNL1       -0.0559
@<TRIPOS>BOND
     1    26    27    3
     2    27    25    1
     3    25    23    1
     4    23     1    1
     5     1     2   ar
     6     2     3   ar
     7     3     4   ar
     8     4     5   ar
     9     5     6   ar
    10     6     7   ar
    11     7     8   ar
    12     8     9    2
    13     8    10   ar
    14    10    15    1
    15    15    16   ar
    16    16    17   ar
    17    17    18   ar
    18    18    21    1
    19    21    22    1
    20    18    19   ar
    21    19    20   ar
    22    10    11   ar
    23    11    12   ar
    24    12    13   ar
    25    13    14   ar
    26    14     1   ar
    27    14     5   ar
    28    13     7   ar
    29    20    15   ar
    30    23    24    1
@<TRIPOS>MOLECULE
*****
 27 30 0 0 0
SMALL
GASTEIGER

@<TRIPOS>ATOM
      1 C         140.9693  140.3306  169.0411 C.ar    1  UNL1        0.0503
      2 C         141.5940  139.4223  170.0583 C.ar    1  UNL1        0.0351
      3 C         142.7489  138.5463  169.6728 C.ar    1  UNL1        0.1007
      4 N         143.2792  138.5786  168.2700 N.ar    1  UNL1       -0.2372
      5 C         142.6546  139.4869  167.2529 C.ar    1  UNL1        0.1135
      6 S         142.9596  139.7327  165.8049 S.2     1  UNL1       -0.0616
      7 C         141.9932  140.7607  165.2956 C.ar    1  UNL1        0.1051
      8 C         141.8183  141.3924  163.9464 C.ar    1  UNL1        0.2733
      9 O         142.7207  141.0029  162.8132 O.2     1  UNL1       -0.2660
     10 N         140.7411  142.4135  163.7303 N.ar    1  UNL1       -0.2563
     11 C         139.8387  142.8030  164.8635 C.ar    1  UNL1        0.1851
     12 N         140.0136  142.1713  166.2127 N.ar    1  UNL1       -0.2243
     13 C         141.0909  141.1501  166.4288 C.ar    1  UNL1        0.0968
     14 C         141.4996  140.3629  167.6384 C.ar    1  UNL1        0.0553
     15 C         140.5661  143.0452  162.3811 C.ar    1  UNL1        0.0685
     16 C         139.6265  142.4353  161.3835 C.ar    1  UNL1        0.0208
     17 C         139.4516  143.0670  160.0343 C.ar    1  UNL1        0.0384
     18 C         140.2163  144.3086  159.6827 C.ar    1  UNL1        0.1388
     19 C         141.1559  144.9184  160.6803 C.ar    1  UNL1        0.0384
     20 C         141.3309  144.2867  162.0295 C.ar    1  UNL1        0.0208
     21 O         140.0414  144.9403  158.3335 O.3     1  UNL1       -0.4714
     22 C         141.1157  145.8255  157.7749 C.3     1  UNL1        0.2525
     23 N         139.8143  141.2066  169.4267 N.pl3   1  UNL1       -0.3219
     24 H         138.8934  140.8655  169.3578 H       1  UNL1        0.1477
     25 C         140.0625  142.6022  169.9172 C.3     1  UNL1        0.1660
     26 C         142.8514  143.4842  170.5835 C.1     1  UNL1       -0.0124
     27 C         141.4570  143.0432  170.2503 C.1     1  UNL1       -0.0559
@<TRIPOS>BOND
     1    26    27    3
     2    27    25    1
     3    25    23    1
     4    23     1    1
     5     1     2   ar
     6     2     3   ar
     7     3     4   ar
     8     4     5   ar
     9     5     6   ar
    10     6     7   ar
    11     7     8   ar
    12     8     9    2
    13     8    10   ar
    14    10    15    1
    15    15    16   ar
    16    16    17   ar
    17    17    18   ar
    18    18    21    1
    19    21    22    1
    20    18    19   ar
    21    19    20   ar
    22    10    11   ar
    23    11    12   ar
    24    12    13   ar
    25    13    14   ar
    26    14     1   ar
    27    14     5   ar
    28    13     7   ar
    29    20    15   ar
    30    23    24    1
