@<TRIPOS>MOLECULE
*****
 35 38 0 0 0
SMALL
GASTEIGER

@<TRIPOS>ATOM
      1 C         143.1797  139.0477  165.0665 C.3     1  UNL1        0.1200
      2 C         143.9639  138.2584  166.0724 C.3     1  UNL1        0.2250
      3 O         143.6420  138.3745  167.5328 O.3     1  UNL1       -0.4740
      4 C         142.5359  139.2800  167.9873 C.ar    1  UNL1        0.1346
      5 C         142.2139  139.3961  169.4478 C.ar    1  UNL1        0.0366
      6 C         141.1078  140.3015  169.9023 C.ar    1  UNL1        0.0031
      7 C         140.3236  141.0909  168.8963 C.ar    1  UNL1       -0.0001
      8 C         140.6455  140.9748  167.4359 C.ar    1  UNL1        0.0005
      9 C         141.7516  140.0693  166.9814 C.ar    1  UNL1        0.0136
     10 C         142.0736  139.9532  165.5210 C.3     1  UNL1        0.0528
     11 C         139.8613  141.7641  166.4300 C.ar    1  UNL1        0.0190
     12 C         140.1387  143.2263  166.2427 C.ar    1  UNL1        0.0028
     13 C         139.3544  144.0156  165.2367 C.ar    1  UNL1        0.0172
     14 CA        138.2927  143.3428  164.4181 C.ar    1  UNL1        0.0885
     15 N         138.0153  141.8806  164.6055 N.ar    1  UNL1       -0.2457
     16 C         138.7995  141.0913  165.6114 C.ar    1  UNL1        0.0985
     17 C         137.5084  144.1321  163.4122 C.3     1  UNL1        0.1829
     18 O         137.7111  143.8899  161.9458 O.3     1  UNL1       -0.3760
     19 H         138.6098  144.1553  161.6954 H       1  UNL1        0.2110
     20 O         141.0179  139.4189  163.0198 O.2     1  UNL1       -0.2701
     21 C         142.4207  139.1172  162.5827 C.2     1  UNL1        0.2474
     22 N         143.5016  138.9316  163.6060 N.am    1  UNL1       -0.2986
     23 H         144.4223  138.7336  163.3191 H       1  UNL1        0.1498
     24 C         142.7426  139.0011  161.1222 C.ar    1  UNL1        0.0727
     25 C         141.9982  138.0201  160.2658 C.ar    1  UNL1        0.0109
     26 C         142.3202  137.9041  158.8054 C.ar    1  UNL1        0.0579
     27 C         143.3865  138.7690  158.2014 C.ar    1  UNL1        0.2251
     28 N         144.1308  139.7500  159.0578 N.ar    1  UNL1       -0.2100
     29 C         143.8089  139.8661  160.5182 C.ar    1  UNL1        0.1065
     30 O         143.7084  138.6529  156.7409 O.3     1  UNL1       -0.4509
     31 C         143.0066  137.6303  155.8972 C.3     1  UNL1        0.3095
     32 C         143.5897  136.2569  155.7435 C.3     1  UNL1        0.4381
     33 F         144.1729  134.8834  155.5898 F       1  UNL1       -0.1663
     34 F         144.8999  136.8593  155.3306 F       1  UNL1       -0.1663
     35 F         142.2796  135.6545  156.1565 F       1  UNL1       -0.1663
@<TRIPOS>BOND
     1    20    21    2
     2    21    22   am
     3     1    22    1
     4     1     2    1
     5     2     3    1
     6     3     4    1
     7     4     5   ar
     8     5     6   ar
     9     6     7   ar
    10     7     8   ar
    11     8    11    1
    12    11    12   ar
    13    12    13   ar
    14    13    14   ar
    15    14    17    1
    16    17    18    1
    17    14    15   ar
    18    15    16   ar
    19     8     9   ar
    20     9    10    1
    21    21    24    1
    22    24    25   ar
    23    25    26   ar
    24    26    27   ar
    25    27    30    1
    26    30    31    1
    27    31    32    1
    28    32    33    1
    29    32    34    1
    30    32    35    1
    31    27    28   ar
    32    28    29   ar
    33    10     1    1
    34    29    24   ar
    35     9     4   ar
    36    16    11   ar
    37    22    23    1
    38    18    19    1
@<TRIPOS>MOLECULE
*****
 35 38 0 0 0
SMALL
GASTEIGER

@<TRIPOS>ATOM
      1 C         140.7593  143.3475  161.4093 C.3     1  UNL1        0.1200
      2 C         141.7786  144.3955  161.0734 C.3     1  UNL1        0.2250
      3 O         142.9215  144.6571  162.0090 O.3     1  UNL1       -0.4740
      4 C         143.0451  143.8708  163.2804 C.ar    1  UNL1        0.1346
      5 C         144.1881  144.1325  164.2159 C.ar    1  UNL1        0.0366
      6 C         144.3117  143.3462  165.4873 C.ar    1  UNL1        0.0031
      7 C         143.2924  142.2982  165.8232 C.ar    1  UNL1       -0.0001
      8 C         142.1495  142.0366  164.8876 C.ar    1  UNL1        0.0005
      9 C         142.0259  142.8229  163.6162 C.ar    1  UNL1        0.0136
     10 C         140.8830  142.5612  162.6807 C.3     1  UNL1        0.0528
     11 C         141.1302  140.9886  165.2235 C.ar    1  UNL1        0.0190
     12 C         139.9355  141.3445  166.0578 C.ar    1  UNL1        0.0028
     13 C         138.9162  140.2965  166.3937 C.ar    1  UNL1        0.0172
     14 CA        139.0916  138.8927  165.8952 C.ar    1  UNL1        0.0885
     15 N         140.2863  138.5368  165.0609 N.ar    1  UNL1       -0.2457
     16 C         141.3056  139.5847  164.7250 C.ar    1  UNL1        0.0985
     17 C         138.0723  137.8447  166.2311 C.3     1  UNL1        0.1829
     18 O         137.0959  138.0780  167.3456 O.3     1  UNL1       -0.3760
     19 H         137.5722  138.1177  168.1897 H       1  UNL1        0.2110
     20 O         141.1463  141.5597  159.0315 O.2     1  UNL1       -0.2701
     21 C         139.8099  142.1920  159.2849 C.2     1  UNL1        0.2474
     22 N         139.6164  143.0859  160.4737 N.am    1  UNL1       -0.2986
     23 H         138.7392  143.5008  160.6400 H       1  UNL1        0.1498
     24 C         138.6669  141.9303  158.3493 C.ar    1  UNL1        0.0727
     25 C         138.2891  142.9555  157.3216 C.ar    1  UNL1        0.0109
     26 C         137.1461  142.6937  156.3861 C.ar    1  UNL1        0.0579
     27 C         136.3810  141.4068  156.4783 C.ar    1  UNL1        0.2251
     28 N         136.7588  140.3817  157.5060 N.ar    1  UNL1       -0.2100
     29 C         137.9018  140.6434  158.4415 C.ar    1  UNL1        0.1065
     30 O         135.2380  141.1452  155.5428 O.3     1  UNL1       -0.4509
     31 C         134.3507  139.9550  155.7572 C.3     1  UNL1        0.3095
     32 C         133.1351  140.0730  156.6281 C.3     1  UNL1        0.4381
     33 F         131.9195  140.1911  157.4990 F       1  UNL1       -0.1663
     34 F         132.7517  141.3392  155.9212 F       1  UNL1       -0.1663
     35 F         133.5186  138.8069  157.3350 F       1  UNL1       -0.1663
@<TRIPOS>BOND
     1    20    21    2
     2    21    22   am
     3     1    22    1
     4     1     2    1
     5     2     3    1
     6     3     4    1
     7     4     5   ar
     8     5     6   ar
     9     6     7   ar
    10     7     8   ar
    11     8    11    1
    12    11    12   ar
    13    12    13   ar
    14    13    14   ar
    15    14    17    1
    16    17    18    1
    17    14    15   ar
    18    15    16   ar
    19     8     9   ar
    20     9    10    1
    21    21    24    1
    22    24    25   ar
    23    25    26   ar
    24    26    27   ar
    25    27    30    1
    26    30    31    1
    27    31    32    1
    28    32    33    1
    29    32    34    1
    30    32    35    1
    31    27    28   ar
    32    28    29   ar
    33    10     1    1
    34    29    24   ar
    35     9     4   ar
    36    16    11   ar
    37    22    23    1
    38    18    19    1
@<TRIPOS>MOLECULE
*****
 35 38 0 0 0
SMALL
GASTEIGER

@<TRIPOS>ATOM
      1 C         142.4638  139.1122  162.5644 C.3     1  UNL1        0.1200
      2 C         142.9622  137.7962  162.0452 C.3     1  UNL1        0.2250
      3 O         143.0095  137.5422  160.5677 O.3     1  UNL1       -0.4740
      4 C         142.5584  138.6043  159.6093 C.ar    1  UNL1        0.1346
      5 C         142.6057  138.3503  158.1316 C.ar    1  UNL1        0.0366
      6 C         142.1547  139.4124  157.1732 C.ar    1  UNL1        0.0031
      7 C         141.6563  140.7285  157.6925 C.ar    1  UNL1       -0.0001
      8 C         141.6090  140.9825  159.1700 C.ar    1  UNL1        0.0005
      9 C         142.0601  139.9204  160.1284 C.ar    1  UNL1        0.0136
     10 C         142.0128  140.1743  161.6060 C.3     1  UNL1        0.0528
     11 C         141.1107  142.2985  159.6892 C.ar    1  UNL1        0.0190
     12 C         142.0048  143.5026  159.6620 C.ar    1  UNL1        0.0028
     13 C         141.5064  144.8187  160.1812 C.ar    1  UNL1        0.0172
     14 CA        140.1139  144.9307  160.7276 C.ar    1  UNL1        0.0885
     15 N         139.2198  143.7266  160.7547 N.ar    1  UNL1       -0.2457
     16 C         139.7182  142.4106  160.2356 C.ar    1  UNL1        0.0985
     17 C         139.6155  146.2468  161.2468 C.3     1  UNL1        0.1829
     18 O         140.2913  146.8953  162.4185 O.3     1  UNL1       -0.3760
     19 H         140.1616  146.3491  163.2095 H       1  UNL1        0.2110
     20 O         139.8545  138.9347  164.0342 O.2     1  UNL1       -0.2701
     21 C         141.1119  139.2775  164.7769 C.2     1  UNL1        0.2474
     22 N         142.4165  139.3663  164.0420 N.am    1  UNL1       -0.2986
     23 H         143.2417  139.5913  164.5295 H       1  UNL1        0.1498
     24 C         141.0646  139.5315  166.2545 C.ar    1  UNL1        0.0727
     25 C         142.3391  139.6876  167.0299 C.ar    1  UNL1        0.0109
     26 C         142.2917  139.9416  168.5074 C.ar    1  UNL1        0.0579
     27 C         140.9698  140.0395  169.2096 C.ar    1  UNL1        0.2251
     28 N         139.6953  139.8835  168.4342 N.ar    1  UNL1       -0.2100
     29 C         139.7427  139.6295  166.9567 C.ar    1  UNL1        0.1065
     30 O         140.9225  140.2936  170.6872 O.3     1  UNL1       -0.4509
     31 C         140.9553  141.6999  171.2079 C.3     1  UNL1        0.3095
     32 C         140.5782  142.8409  170.3102 C.3     1  UNL1        0.4381
     33 F         140.2011  143.9820  169.4126 F       1  UNL1       -0.1663
     34 F         142.0290  143.1701  170.1191 F       1  UNL1       -0.1663
     35 F         139.1273  142.5117  170.5014 F       1  UNL1       -0.1663
@<TRIPOS>BOND
     1    20    21    2
     2    21    22   am
     3     1    22    1
     4     1     2    1
     5     2     3    1
     6     3     4    1
     7     4     5   ar
     8     5     6   ar
     9     6     7   ar
    10     7     8   ar
    11     8    11    1
    12    11    12   ar
    13    12    13   ar
    14    13    14   ar
    15    14    17    1
    16    17    18    1
    17    14    15   ar
    18    15    16   ar
    19     8     9   ar
    20     9    10    1
    21    21    24    1
    22    24    25   ar
    23    25    26   ar
    24    26    27   ar
    25    27    30    1
    26    30    31    1
    27    31    32    1
    28    32    33    1
    29    32    34    1
    30    32    35    1
    31    27    28   ar
    32    28    29   ar
    33    10     1    1
    34    29    24   ar
    35     9     4   ar
    36    16    11   ar
    37    22    23    1
    38    18    19    1
@<TRIPOS>MOLECULE
*****
 35 38 0 0 0
SMALL
GASTEIGER

@<TRIPOS>ATOM
      1 C         139.8622  141.4748  160.1897 C.3     1  UNL1        0.1200
      2 C         138.7963  142.4186  159.7174 C.3     1  UNL1        0.2250
      3 O         138.0603  143.2737  160.7058 O.3     1  UNL1       -0.4740
      4 C         138.3901  143.1850  162.1664 C.ar    1  UNL1        0.1346
      5 C         137.6539  144.0402  163.1548 C.ar    1  UNL1        0.0366
      6 C         137.9837  143.9516  164.6154 C.ar    1  UNL1        0.0031
      7 C         139.0496  143.0077  165.0876 C.ar    1  UNL1       -0.0001
      8 C         139.7857  142.1526  164.0993 C.ar    1  UNL1        0.0005
      9 C         139.4559  142.2412  162.6387 C.ar    1  UNL1        0.0136
     10 C         140.1920  141.3861  161.6503 C.3     1  UNL1        0.0528
     11 C         140.8516  141.2088  164.5715 C.ar    1  UNL1        0.0190
     12 C         140.4936  139.8026  164.9517 C.ar    1  UNL1        0.0028
     13 C         141.5595  138.8588  165.4240 C.ar    1  UNL1        0.0172
     14 CA        142.9835  139.3212  165.5161 C.ar    1  UNL1        0.0885
     15 N         143.3416  140.7273  165.1359 N.ar    1  UNL1       -0.2457
     16 C         142.2757  141.6711  164.6636 C.ar    1  UNL1        0.0985
     17 C         144.0495  138.3774  165.9884 C.3     1  UNL1        0.1829
     18 O         143.9920  137.8159  167.3781 O.3     1  UNL1       -0.3760
     19 H         144.1125  138.5318  168.0214 H       1  UNL1        0.2110
     20 O         139.1409  138.5791  159.8813 O.2     1  UNL1       -0.2701
     21 C         140.2377  139.1718  159.0472 C.2     1  UNL1        0.2474
     22 N         140.5984  140.6196  159.2014 N.am    1  UNL1       -0.2986
     23 H         141.3183  141.0085  158.6539 H       1  UNL1        0.1498
     24 C         140.9739  138.3166  158.0588 C.ar    1  UNL1        0.0727
     25 C         140.2164  137.5775  156.9958 C.ar    1  UNL1        0.0109
     26 C         140.9526  136.7224  156.0075 C.ar    1  UNL1        0.0579
     27 C         142.4462  136.6063  156.0822 C.ar    1  UNL1        0.2251
     28 N         143.2037  137.3454  157.1452 N.ar    1  UNL1       -0.2100
     29 C         142.4675  138.2005  158.1335 C.ar    1  UNL1        0.1065
     30 O         143.1824  135.7511  155.0939 O.3     1  UNL1       -0.4509
     31 C         142.7934  134.3143  154.9091 C.3     1  UNL1        0.3095
     32 C         142.7513  133.3909  156.0905 C.3     1  UNL1        0.4381
     33 F         142.7091  132.4675  157.2718 F       1  UNL1       -0.1663
     34 F         141.3024  133.1120  155.8208 F       1  UNL1       -0.1663
     35 F         144.2002  133.6698  156.3602 F       1  UNL1       -0.1663
@<TRIPOS>BOND
     1    20    21    2
     2    21    22   am
     3     1    22    1
     4     1     2    1
     5     2     3    1
     6     3     4    1
     7     4     5   ar
     8     5     6   ar
     9     6     7   ar
    10     7     8   ar
    11     8    11    1
    12    11    12   ar
    13    12    13   ar
    14    13    14   ar
    15    14    17    1
    16    17    18    1
    17    14    15   ar
    18    15    16   ar
    19     8     9   ar
    20     9    10    1
    21    21    24    1
    22    24    25   ar
    23    25    26   ar
    24    26    27   ar
    25    27    30    1
    26    30    31    1
    27    31    32    1
    28    32    33    1
    29    32    34    1
    30    32    35    1
    31    27    28   ar
    32    28    29   ar
    33    10     1    1
    34    29    24   ar
    35     9     4   ar
    36    16    11   ar
    37    22    23    1
    38    18    19    1
@<TRIPOS>MOLECULE
*****
 35 38 0 0 0
SMALL
GASTEIGER

@<TRIPOS>ATOM
      1 C         142.1061  139.3839  163.7957 C.3     1  UNL1        0.1200
      2 C         142.4163  138.3829  164.8689 C.3     1  UNL1        0.2250
      3 O         142.1819  138.7306  166.3090 O.3     1  UNL1       -0.4740
      4 C         141.6373  140.0792  166.6760 C.ar    1  UNL1        0.1346
      5 C         141.4029  140.4268  168.1163 C.ar    1  UNL1        0.0366
      6 C         140.8583  141.7754  168.4832 C.ar    1  UNL1        0.0031
      7 C         140.5480  142.7763  167.4099 C.ar    1  UNL1       -0.0001
      8 C         140.7824  142.4287  165.9698 C.ar    1  UNL1        0.0005
      9 C         141.3271  141.0801  165.6028 C.ar    1  UNL1        0.0136
     10 C         141.5614  140.7324  164.1626 C.3     1  UNL1        0.0528
     11 C         140.4722  143.4296  164.8966 C.ar    1  UNL1        0.0190
     12 C         139.0607  143.6053  164.4201 C.ar    1  UNL1        0.0028
     13 C         138.7505  144.6063  163.3469 C.ar    1  UNL1        0.0172
     14 CA        139.8517  145.4316  162.7501 C.ar    1  UNL1        0.0885
     15 N         141.2631  145.2560  163.2265 N.ar    1  UNL1       -0.2457
     16 C         141.5734  144.2550  164.2997 C.ar    1  UNL1        0.0985
     17 C         139.5415  146.4326  161.6768 C.3     1  UNL1        0.1829
     18 O         139.6780  146.0505  160.2328 O.3     1  UNL1       -0.3760
     19 H         140.6112  145.8794  160.0304 H       1  UNL1        0.2110
     20 O         139.7760  138.8508  161.9828 O.2     1  UNL1       -0.2701
     21 C         141.1755  138.7697  161.4490 C.2     1  UNL1        0.2474
     22 N         142.3405  139.0362  162.3554 N.am    1  UNL1       -0.2986
     23 H         143.2590  138.9830  162.0050 H       1  UNL1        0.1498
     24 C         141.4098  138.4221  160.0087 C.ar    1  UNL1        0.0727
     25 C         140.2641  138.4241  159.0406 C.ar    1  UNL1        0.0109
     26 C         140.4985  138.0765  157.6005 C.ar    1  UNL1        0.0579
     27 C         141.8787  137.7269  157.1284 C.ar    1  UNL1        0.2251
     28 N         143.0244  137.7248  158.0965 N.ar    1  UNL1       -0.2100
     29 C         142.7900  138.0724  159.5366 C.ar    1  UNL1        0.1065
     30 O         142.1131  137.3792  155.6881 O.3     1  UNL1       -0.4509
     31 C         142.8698  136.1344  155.3306 C.3     1  UNL1        0.3095
     32 C         142.6558  134.8749  156.1165 C.3     1  UNL1        0.4381
     33 F         142.4417  133.6153  156.9025 F       1  UNL1       -0.1663
     34 F         141.2446  134.8009  155.6136 F       1  UNL1       -0.1663
     35 F         144.0670  134.9489  156.6194 F       1  UNL1       -0.1663
@<TRIPOS>BOND
     1    20    21    2
     2    21    22   am
     3     1    22    1
     4     1     2    1
     5     2     3    1
     6     3     4    1
     7     4     5   ar
     8     5     6   ar
     9     6     7   ar
    10     7     8   ar
    11     8    11    1
    12    11    12   ar
    13    12    13   ar
    14    13    14   ar
    15    14    17    1
    16    17    18    1
    17    14    15   ar
    18    15    16   ar
    19     8     9   ar
    20     9    10    1
    21    21    24    1
    22    24    25   ar
    23    25    26   ar
    24    26    27   ar
    25    27    30    1
    26    30    31    1
    27    31    32    1
    28    32    33    1
    29    32    34    1
    30    32    35    1
    31    27    28   ar
    32    28    29   ar
    33    10     1    1
    34    29    24   ar
    35     9     4   ar
    36    16    11   ar
    37    22    23    1
    38    18    19    1
@<TRIPOS>MOLECULE
*****
 35 38 0 0 0
SMALL
GASTEIGER

@<TRIPOS>ATOM
      1 C         142.3714  138.9386  162.2946 C.3     1  UNL1        0.1200
      2 C         142.8836  137.6381  161.7504 C.3     1  UNL1        0.2250
      3 O         143.0683  137.4645  160.2720 O.3     1  UNL1       -0.4740
      4 C         142.7407  138.5915  159.3378 C.ar    1  UNL1        0.1346
      5 C         142.9253  138.4179  157.8593 C.ar    1  UNL1        0.0366
      6 C         142.5977  139.5448  156.9252 C.ar    1  UNL1        0.0031
      7 C         142.0855  140.8454  157.4695 C.ar    1  UNL1       -0.0001
      8 C         141.9009  141.0190  158.9479 C.ar    1  UNL1        0.0005
      9 C         142.2285  139.8920  159.8821 C.ar    1  UNL1        0.0136
     10 C         142.0439  140.0656  161.3605 C.3     1  UNL1        0.0528
     11 C         141.3887  142.3195  159.4921 C.ar    1  UNL1        0.0190
     12 C         139.9296  142.4809  159.8003 C.ar    1  UNL1        0.0028
     13 C         139.4174  143.7815  160.3445 C.ar    1  UNL1        0.0172
     14 CA        140.3643  144.9206  160.5806 C.ar    1  UNL1        0.0885
     15 N         141.8234  144.7592  160.2725 N.ar    1  UNL1       -0.2457
     16 C         142.3356  143.4587  159.7282 C.ar    1  UNL1        0.0985
     17 C         139.8521  146.2212  161.1249 C.3     1  UNL1        0.1829
     18 O         140.3520  146.7311  162.4440 O.3     1  UNL1       -0.3760
     19 H         140.0634  146.1340  163.1519 H       1  UNL1        0.2110
     20 O         144.4792  140.3264  163.9169 O.2     1  UNL1       -0.2701
     21 C         143.2407  139.8061  164.5842 C.2     1  UNL1        0.2474
     22 N         142.1868  139.1123  163.7731 N.am    1  UNL1       -0.2986
     23 H         141.3739  138.7708  164.2111 H       1  UNL1        0.1498
     24 C         143.0560  139.9798  166.0627 C.ar    1  UNL1        0.0727
     25 C         142.7667  141.3387  166.6279 C.ar    1  UNL1        0.0109
     26 C         142.5821  141.5123  168.1063 C.ar    1  UNL1        0.0579
     27 C         142.6868  140.3269  169.0195 C.ar    1  UNL1        0.2251
     28 N         142.9761  138.9680  168.4543 N.ar    1  UNL1       -0.2100
     29 C         143.1608  138.7944  166.9759 C.ar    1  UNL1        0.1065
     30 O         142.5021  140.5005  170.4980 O.3     1  UNL1       -0.4509
     31 C         141.3399  141.2915  171.0209 C.3     1  UNL1        0.3095
     32 C         139.9574  141.0239  170.5041 C.3     1  UNL1        0.4381
     33 F         138.5749  140.7562  169.9873 F       1  UNL1       -0.1663
     34 F         140.0404  139.6149  171.0118 F       1  UNL1       -0.1663
     35 F         139.8745  142.4329  169.9964 F       1  UNL1       -0.1663
@<TRIPOS>BOND
     1    20    21    2
     2    21    22   am
     3     1    22    1
     4     1     2    1
     5     2     3    1
     6     3     4    1
     7     4     5   ar
     8     5     6   ar
     9     6     7   ar
    10     7     8   ar
    11     8    11    1
    12    11    12   ar
    13    12    13   ar
    14    13    14   ar
    15    14    17    1
    16    17    18    1
    17    14    15   ar
    18    15    16   ar
    19     8     9   ar
    20     9    10    1
    21    21    24    1
    22    24    25   ar
    23    25    26   ar
    24    26    27   ar
    25    27    30    1
    26    30    31    1
    27    31    32    1
    28    32    33    1
    29    32    34    1
    30    32    35    1
    31    27    28   ar
    32    28    29   ar
    33    10     1    1
    34    29    24   ar
    35     9     4   ar
    36    16    11   ar
    37    22    23    1
    38    18    19    1
@<TRIPOS>MOLECULE
*****
 35 38 0 0 0
SMALL
GASTEIGER

@<TRIPOS>ATOM
      1 C         139.5622  138.8343  162.9645 C.3     1  UNL1        0.1200
      2 C         138.6827  137.7631  163.5380 C.3     1  UNL1        0.2250
      3 O         138.3404  137.7758  164.9984 O.3     1  UNL1       -0.4740
      4 C         138.8776  138.8598  165.8852 C.ar    1  UNL1        0.1346
      5 C         138.5353  138.8725  167.3456 C.ar    1  UNL1        0.0366
      6 C         139.0725  139.9564  168.2324 C.ar    1  UNL1        0.0031
      7 C         139.9520  141.0277  167.6588 C.ar    1  UNL1       -0.0001
      8 C         140.2943  141.0150  166.1985 C.ar    1  UNL1        0.0005
      9 C         139.7571  139.9310  165.3117 C.ar    1  UNL1        0.0136
     10 C         140.0994  139.9182  163.8513 C.3     1  UNL1        0.0528
     11 C         141.1737  142.0862  165.6250 C.ar    1  UNL1        0.0190
     12 C         142.6657  141.9605  165.7165 C.ar    1  UNL1        0.0028
     13 C         143.5451  143.0318  165.1429 C.ar    1  UNL1        0.0172
     14 CA        142.9327  144.2287  164.4779 C.ar    1  UNL1        0.0885
     15 N         141.4408  144.3544  164.3864 N.ar    1  UNL1       -0.2457
     16 C         140.5613  143.2832  164.9600 C.ar    1  UNL1        0.0985
     17 C         143.8122  145.3000  163.9044 C.3     1  UNL1        0.1829
     18 O         144.1224  145.3098  162.4368 O.3     1  UNL1       -0.3760
     19 H         144.6515  144.5283  162.2130 H       1  UNL1        0.2110
     20 O         142.3331  138.1001  162.0796 O.2     1  UNL1       -0.2701
     21 C         141.2900  138.4545  161.0617 C.2     1  UNL1        0.2474
     22 N         139.9045  138.8216  161.5041 N.am    1  UNL1       -0.2986
     23 H         139.2199  139.0542  160.8360 H       1  UNL1        0.1498
     24 C         141.6323  138.4418  159.6013 C.ar    1  UNL1        0.0727
     25 C         140.5397  138.3827  158.5753 C.ar    1  UNL1        0.0109
     26 C         140.8820  138.3700  157.1150 C.ar    1  UNL1        0.0579
     27 C         142.3170  138.4164  156.6807 C.ar    1  UNL1        0.2251
     28 N         143.4096  138.4754  157.7066 N.ar    1  UNL1       -0.2100
     29 C         143.0673  138.4881  159.1669 C.ar    1  UNL1        0.1065
     30 O         142.6593  138.4037  155.2202 O.3     1  UNL1       -0.4509
     31 C         142.8891  137.0999  154.5151 C.3     1  UNL1        0.3095
     32 C         143.4904  135.9424  155.2558 C.3     1  UNL1        0.4381
     33 F         144.0917  134.7849  155.9966 F       1  UNL1       -0.1663
     34 F         142.1745  135.2245  155.2022 F       1  UNL1       -0.1663
     35 F         144.8063  136.6604  155.3094 F       1  UNL1       -0.1663
@<TRIPOS>BOND
     1    20    21    2
     2    21    22   am
     3     1    22    1
     4     1     2    1
     5     2     3    1
     6     3     4    1
     7     4     5   ar
     8     5     6   ar
     9     6     7   ar
    10     7     8   ar
    11     8    11    1
    12    11    12   ar
    13    12    13   ar
    14    13    14   ar
    15    14    17    1
    16    17    18    1
    17    14    15   ar
    18    15    16   ar
    19     8     9   ar
    20     9    10    1
    21    21    24    1
    22    24    25   ar
    23    25    26   ar
    24    26    27   ar
    25    27    30    1
    26    30    31    1
    27    31    32    1
    28    32    33    1
    29    32    34    1
    30    32    35    1
    31    27    28   ar
    32    28    29   ar
    33    10     1    1
    34    29    24   ar
    35     9     4   ar
    36    16    11   ar
    37    22    23    1
    38    18    19    1
@<TRIPOS>MOLECULE
*****
 35 38 0 0 0
SMALL
GASTEIGER

@<TRIPOS>ATOM
      1 C         139.3393  138.9873  164.2331 C.3     1  UNL1        0.1200
      2 C         138.5162  138.1015  165.1207 C.3     1  UNL1        0.2250
      3 O         138.4081  138.4008  166.5866 O.3     1  UNL1       -0.4740
      4 C         139.1233  139.5858  167.1648 C.ar    1  UNL1        0.1346
      5 C         139.0152  139.8851  168.6307 C.ar    1  UNL1        0.0366
      6 C         139.7303  141.0701  169.2090 C.ar    1  UNL1        0.0031
      7 C         140.5535  141.9558  168.3213 C.ar    1  UNL1       -0.0001
      8 C         140.6615  141.6566  166.8555 C.ar    1  UNL1        0.0005
      9 C         139.9464  140.4716  166.2772 C.ar    1  UNL1        0.0136
     10 C         140.0545  140.1723  164.8114 C.3     1  UNL1        0.0528
     11 C         141.4847  142.5423  165.9679 C.ar    1  UNL1        0.0190
     12 C         140.8120  143.5390  165.0712 C.ar    1  UNL1        0.0028
     13 C         141.6353  144.4248  164.1836 C.ar    1  UNL1        0.0172
     14 CA        143.1311  144.3137  164.1927 C.ar    1  UNL1        0.0885
     15 N         143.8038  143.3170  165.0893 N.ar    1  UNL1       -0.2457
     16 C         142.9806  142.4312  165.9769 C.ar    1  UNL1        0.0985
     17 C         143.9544  145.1995  163.3050 C.3     1  UNL1        0.1829
     18 O         144.7531  144.6037  162.1839 O.3     1  UNL1       -0.3760
     19 H         145.4550  144.0427  162.5494 H       1  UNL1        0.2110
     20 O         141.9981  139.1737  162.8561 O.2     1  UNL1       -0.2701
     21 C         140.7768  138.7812  162.0787 C.2     1  UNL1        0.2474
     22 N         139.4474  138.6880  162.7672 N.am    1  UNL1       -0.2986
     23 H         138.6458  138.4304  162.2570 H       1  UNL1        0.1498
     24 C         140.8848  138.4819  160.6128 C.ar    1  UNL1        0.0727
     25 C         142.2177  138.1467  160.0121 C.ar    1  UNL1        0.0109
     26 C         142.3258  137.8475  158.5462 C.ar    1  UNL1        0.0579
     27 C         141.1009  137.8834  157.6811 C.ar    1  UNL1        0.2251
     28 N         139.7680  138.2187  158.2819 N.ar    1  UNL1       -0.2100
     29 C         139.6600  138.5179  159.7477 C.ar    1  UNL1        0.1065
     30 O         141.2089  137.5842  156.2152 O.3     1  UNL1       -0.4509
     31 C         142.1650  136.5340  155.7326 C.3     1  UNL1        0.3095
     32 C         141.7567  135.0907  155.7336 C.3     1  UNL1        0.4381
     33 F         141.3484  133.6473  155.7345 F       1  UNL1       -0.1663
     34 F         142.5614  134.8638  156.9789 F       1  UNL1       -0.1663
     35 F         140.9520  135.3176  154.4882 F       1  UNL1       -0.1663
@<TRIPOS>BOND
     1    20    21    2
     2    21    22   am
     3     1    22    1
     4     1     2    1
     5     2     3    1
     6     3     4    1
     7     4     5   ar
     8     5     6   ar
     9     6     7   ar
    10     7     8   ar
    11     8    11    1
    12    11    12   ar
    13    12    13   ar
    14    13    14   ar
    15    14    17    1
    16    17    18    1
    17    14    15   ar
    18    15    16   ar
    19     8     9   ar
    20     9    10    1
    21    21    24    1
    22    24    25   ar
    23    25    26   ar
    24    26    27   ar
    25    27    30    1
    26    30    31    1
    27    31    32    1
    28    32    33    1
    29    32    34    1
    30    32    35    1
    31    27    28   ar
    32    28    29   ar
    33    10     1    1
    34    29    24   ar
    35     9     4   ar
    36    16    11   ar
    37    22    23    1
    38    18    19    1
@<TRIPOS>MOLECULE
*****
 35 38 0 0 0
SMALL
GASTEIGER

@<TRIPOS>ATOM
      1 C         138.9768  140.1653  161.3881 C.3     1  UNL1        0.1200
      2 C         137.4977  140.4119  161.3481 C.3     1  UNL1        0.2250
      3 O         136.8880  141.4598  162.2312 O.3     1  UNL1       -0.4740
      4 C         137.7573  142.2612  163.1544 C.ar    1  UNL1        0.1346
      5 C         137.1474  143.3092  164.0376 C.ar    1  UNL1        0.0366
      6 C         138.0167  144.1105  164.9607 C.ar    1  UNL1        0.0031
      7 C         139.4958  143.8639  165.0007 C.ar    1  UNL1       -0.0001
      8 C         140.1056  142.8160  164.1175 C.ar    1  UNL1        0.0005
      9 C         139.2363  142.0146  163.1944 C.ar    1  UNL1        0.0136
     10 C         139.8460  140.9667  162.3112 C.3     1  UNL1        0.0528
     11 C         141.5846  142.5694  164.1575 C.ar    1  UNL1        0.0190
     12 C         142.5050  143.3889  163.3023 C.ar    1  UNL1        0.0028
     13 C         143.9841  143.1423  163.3424 C.ar    1  UNL1        0.0172
     14 CA        144.5427  142.0762  164.2375 C.ar    1  UNL1        0.0885
     15 N         143.6223  141.2567  165.0927 N.ar    1  UNL1       -0.2457
     16 C         142.1433  141.5033  165.0527 C.ar    1  UNL1        0.0985
     17 C         146.0218  141.8296  164.2775 C.3     1  UNL1        0.1829
     18 O         146.8193  141.8449  163.0072 O.3     1  UNL1       -0.3760
     19 H         146.5462  141.1031  162.4450 H       1  UNL1        0.2110
     20 O         140.4010  140.9671  158.8723 O.2     1  UNL1       -0.2701
     21 C         140.2987  139.5182  159.2471 C.2     1  UNL1        0.2474
     22 N         139.5866  139.1174  160.5049 N.am    1  UNL1       -0.2986
     23 H         139.5195  138.1664  160.7508 H       1  UNL1        0.1498
     24 C         140.9085  138.4703  158.3639 C.ar    1  UNL1        0.0727
     25 C         140.0894  137.8325  157.2812 C.ar    1  UNL1        0.0109
     26 C         140.6992  136.7846  156.3981 C.ar    1  UNL1        0.0579
     27 C         142.1282  136.3744  156.5976 C.ar    1  UNL1        0.2251
     28 N         142.9473  137.0122  157.6803 N.ar    1  UNL1       -0.2100
     29 C         142.3375  138.0601  158.5634 C.ar    1  UNL1        0.1065
     30 O         142.7380  135.3265  155.7145 O.3     1  UNL1       -0.4509
     31 C         142.6855  133.8826  156.1176 C.3     1  UNL1        0.3095
     32 C         143.8724  133.2442  156.7761 C.3     1  UNL1        0.4381
     33 F         145.0594  132.6057  157.4345 F       1  UNL1       -0.1663
     34 F         144.2958  132.6704  155.4565 F       1  UNL1       -0.1663
     35 F         143.4490  133.8181  158.0956 F       1  UNL1       -0.1663
@<TRIPOS>BOND
     1    20    21    2
     2    21    22   am
     3     1    22    1
     4     1     2    1
     5     2     3    1
     6     3     4    1
     7     4     5   ar
     8     5     6   ar
     9     6     7   ar
    10     7     8   ar
    11     8    11    1
    12    11    12   ar
    13    12    13   ar
    14    13    14   ar
    15    14    17    1
    16    17    18    1
    17    14    15   ar
    18    15    16   ar
    19     8     9   ar
    20     9    10    1
    21    21    24    1
    22    24    25   ar
    23    25    26   ar
    24    26    27   ar
    25    27    30    1
    26    30    31    1
    27    31    32    1
    28    32    33    1
    29    32    34    1
    30    32    35    1
    31    27    28   ar
    32    28    29   ar
    33    10     1    1
    34    29    24   ar
    35     9     4   ar
    36    16    11   ar
    37    22    23    1
    38    18    19    1
