@<TRIPOS>MOLECULE
*****
 34 38 0 0 0
SMALL
GASTEIGER

@<TRIPOS>ATOM
      1 C         139.8334  139.5584  162.8314 C.ar    1  UNL1        0.0878
      2 C         138.6929  138.7749  163.4104 C.ar    1  UNL1        0.1543
      3 F         137.7894  137.9875  162.5084 F       1  UNL1       -0.2028
      4 C         138.4559  138.7787  164.8915 C.ar    1  UNL1        0.0356
      5 C         139.3594  139.5661  165.7936 C.ar    1  UNL1        0.0580
      6 C         139.1224  139.5700  167.2748 C.ar    1  UNL1        0.1996
      7 O         137.9819  138.7865  167.8539 O.2     1  UNL1       -0.2864
      8 C         140.0259  140.3574  168.1769 C.ar    1  UNL1        0.0701
      9 C         141.1664  141.1409  167.5977 C.ar    1  UNL1        0.0801
     10 N         141.4034  141.1370  166.1166 N.ar    1  UNL1       -0.3270
     11 C         140.4999  140.3496  165.2145 C.ar    1  UNL1        0.0750
     12 C         140.7369  140.3458  163.7334 C.ar    1  UNL1        0.0890
     13 CL        141.8774  141.1293  163.1543 Cl      1  UNL1       -0.0794
     14 C         140.6879  138.8437  159.1132 C.3     1  UNL1        0.0930
     15 C         140.1824  140.2535  159.0286 C.3     1  UNL1        0.0427
     16 C         139.8008  140.6927  160.4111 C.3     1  UNL1        0.0927
     17 N         140.0704  139.5545  161.3501 N.pl3   1  UNL1       -0.3033
     18 C         140.6187  138.4118  160.5480 C.3     1  UNL1        0.1104
     19 O         143.6139  138.7672  158.4551 O.2     1  UNL1       -0.2730
     20 C         142.6398  137.9737  157.6355 C.2     1  UNL1        0.2456
     21 N         141.1768  138.0119  157.9646 N.am    1  UNL1       -0.3026
     22 H         140.5375  137.4911  157.4268 H       1  UNL1        0.1495
     23 C         143.1286  137.1420  156.4870 C.3     1  UNL1        0.1929
     24 N         142.7782  135.6853  156.4132 N.ar    1  UNL1       -0.2992
     25 C         141.8426  135.0525  155.4262 C.ar    1  UNL1        0.0984
     26 C         141.7881  133.5819  155.7165 C.ar    1  UNL1        0.1193
     27 N         142.6899  133.3058  156.8827 N.ar    1  UNL1       -0.2223
     28 C         143.3019  134.6058  157.3133 C.ar    1  UNL1        0.1790
     29 C         139.7889  140.3612  169.6580 C.2     1  UNL1        0.0774
     30 O         140.5402  139.4087  170.5402 O.co2   1  UNL1       -0.5444
     31 O         138.8006  141.3176  170.2569 O.co2   1  UNL1       -0.5444
     32 C         142.5439  141.9205  165.5375 C.3     1  UNL1        0.0857
     33 C         143.0810  143.1928  164.9520 C.3     1  UNL1        0.0245
     34 C         143.9821  142.0054  165.1200 C.3     1  UNL1        0.0245
@<TRIPOS>UNITY_ATOM_ATTR
30 1
charge -1
@<TRIPOS>BOND
     1    19    20    2
     2    20    23    1
     3    23    24    1
     4    24    25   ar
     5    25    26   ar
     6    26    27   ar
     7    27    28   ar
     8    20    21   am
     9    21    14    1
    10    14    15    1
    11    15    16    1
    12    16    17    1
    13    17     1    1
    14     1     2   ar
    15     2     3    1
    16     2     4   ar
    17     4     5   ar
    18     5     6   ar
    19     6     7    2
    20     6     8   ar
    21     8    29    1
    22    29    30   ar
    23    29    31   ar
    24     8     9   ar
    25     9    10   ar
    26    10    32    1
    27    32    33    1
    28    33    34    1
    29    10    11   ar
    30    11    12   ar
    31    12    13    1
    32    17    18    1
    33    28    24   ar
    34    18    14    1
    35    12     1   ar
    36    11     5   ar
    37    34    32    1
    38    21    22    1
@<TRIPOS>MOLECULE
*****
 34 38 0 0 0
SMALL
GASTEIGER

@<TRIPOS>ATOM
      1 C         142.8901  141.0337  164.6558 C.ar    1  UNL1        0.0878
      2 C         143.8163  141.9308  165.4222 C.ar    1  UNL1        0.1543
      3 F         145.0905  142.4085  164.7912 F       1  UNL1       -0.2028
      4 C         143.4683  142.3502  166.8197 C.ar    1  UNL1        0.0356
      5 C         142.1941  141.8726  167.4507 C.ar    1  UNL1        0.0580
      6 C         141.8460  142.2921  168.8482 C.ar    1  UNL1        0.1996
      7 O         142.7722  143.1892  169.6146 O.2     1  UNL1       -0.2864
      8 C         140.5718  141.8144  169.4793 C.ar    1  UNL1        0.0701
      9 C         139.6456  140.9173  168.7128 C.ar    1  UNL1        0.0801
     10 N         139.9937  140.4978  167.3154 N.ar    1  UNL1       -0.3270
     11 C         141.2679  140.9755  166.6843 C.ar    1  UNL1        0.0750
     12 C         141.6159  140.5561  165.2869 C.ar    1  UNL1        0.0890
     13 CL        140.6897  139.6589  164.5204 Cl      1  UNL1       -0.0794
     14 C         143.5255  140.6273  160.8483 C.3     1  UNL1        0.0930
     15 C         144.0217  139.3103  161.3672 C.3     1  UNL1        0.0427
     16 C         143.8441  139.3022  162.8567 C.3     1  UNL1        0.0927
     17 N         143.2381  140.6142  163.2583 N.pl3   1  UNL1       -0.3033
     18 C         143.0413  141.4332  162.0171 C.3     1  UNL1        0.1104
     19 O         145.3621  142.8149  159.9307 O.2     1  UNL1       -0.2730
     20 C         144.4337  142.1559  158.9539 C.2     1  UNL1        0.2456
     21 N         143.5154  141.0621  159.4128 N.am    1  UNL1       -0.3026
     22 H         142.9061  140.6296  158.7718 H       1  UNL1        0.1495
     23 C         144.4235  142.5907  157.5184 C.3     1  UNL1        0.1929
     24 N         145.5741  142.2425  156.6211 N.ar    1  UNL1       -0.2992
     25 C         145.4828  141.5165  155.3117 C.ar    1  UNL1        0.0984
     26 C         146.8703  141.3846  154.7572 C.ar    1  UNL1        0.1193
     27 N         147.8190  142.0290  155.7238 N.ar    1  UNL1       -0.2223
     28 C         147.0180  142.5593  156.8758 C.ar    1  UNL1        0.1790
     29 C         140.2238  142.2339  170.8768 C.2     1  UNL1        0.0774
     30 O         139.3269  143.4145  171.1041 O.co2   1  UNL1       -0.5444
     31 O         140.7727  141.4727  172.0470 O.co2   1  UNL1       -0.5444
     32 C         139.0675  139.6007  166.5490 C.3     1  UNL1        0.0857
     33 C         138.4844  138.2408  166.3032 C.3     1  UNL1        0.0245
     34 C         138.0464  139.4068  165.4675 C.3     1  UNL1        0.0245
@<TRIPOS>UNITY_ATOM_ATTR
30 1
charge -1
@<TRIPOS>BOND
     1    19    20    2
     2    20    23    1
     3    23    24    1
     4    24    25   ar
     5    25    26   ar
     6    26    27   ar
     7    27    28   ar
     8    20    21   am
     9    21    14    1
    10    14    15    1
    11    15    16    1
    12    16    17    1
    13    17     1    1
    14     1     2   ar
    15     2     3    1
    16     2     4   ar
    17     4     5   ar
    18     5     6   ar
    19     6     7    2
    20     6     8   ar
    21     8    29    1
    22    29    30   ar
    23    29    31   ar
    24     8     9   ar
    25     9    10   ar
    26    10    32    1
    27    32    33    1
    28    33    34    1
    29    10    11   ar
    30    11    12   ar
    31    12    13    1
    32    17    18    1
    33    28    24   ar
    34    18    14    1
    35    12     1   ar
    36    11     5   ar
    37    34    32    1
    38    21    22    1
@<TRIPOS>MOLECULE
*****
 34 38 0 0 0
SMALL
GASTEIGER

@<TRIPOS>ATOM
      1 C         142.0531  142.4328  163.8366 C.ar    1  UNL1        0.0878
      2 C         143.1472  143.2185  164.4966 C.ar    1  UNL1        0.1543
      3 F         143.9516  144.2010  163.6982 F       1  UNL1       -0.2028
      4 C         143.4368  143.0216  165.9552 C.ar    1  UNL1        0.0356
      5 C         142.6324  142.0391  166.7536 C.ar    1  UNL1        0.0580
      6 C         142.9220  141.8423  168.2122 C.ar    1  UNL1        0.1996
      7 O         144.0161  142.6279  168.8723 O.2     1  UNL1       -0.2864
      8 C         142.1176  140.8597  169.0107 C.ar    1  UNL1        0.0701
      9 C         141.0235  140.0741  168.3505 C.ar    1  UNL1        0.0801
     10 N         140.7339  140.2709  166.8920 N.ar    1  UNL1       -0.3270
     11 C         141.5383  141.2534  166.0936 C.ar    1  UNL1        0.0750
     12 C         141.2487  141.4503  164.6350 C.ar    1  UNL1        0.0890
     13 CL        140.1546  140.6646  163.9749 Cl      1  UNL1       -0.0794
     14 C         140.8616  143.5039  160.3012 C.3     1  UNL1        0.0930
     15 C         141.7737  142.3612  159.9659 C.3     1  UNL1        0.0427
     16 C         142.3311  141.8209  161.2494 C.3     1  UNL1        0.0927
     17 N         141.7635  142.6296  162.3780 N.pl3   1  UNL1       -0.3033
     18 C         140.8553  143.6698  161.7920 C.3     1  UNL1        0.1104
     19 O         142.2617  145.6261  158.7086 O.2     1  UNL1       -0.2730
     20 C         140.7912  145.3959  158.5220 C.2     1  UNL1        0.2456
     21 N         140.0912  144.3348  159.3184 N.am    1  UNL1       -0.3026
     22 H         139.1261  144.1838  159.1959 H       1  UNL1        0.1495
     23 C         140.0208  146.2268  157.5392 C.3     1  UNL1        0.1929
     24 N         140.4401  146.2667  156.0995 N.ar    1  UNL1       -0.2992
     25 C         141.3228  145.2688  155.4103 C.ar    1  UNL1        0.0984
     26 C         141.4786  145.6969  153.9812 C.ar    1  UNL1        0.1193
     27 N         140.6922  146.9593  153.7871 N.ar    1  UNL1       -0.2223
     28 C         140.0504  147.3115  155.0963 C.ar    1  UNL1        0.1790
     29 C         142.4072  140.6629  170.4692 C.2     1  UNL1        0.0774
     30 O         143.4347  139.6590  170.9010 O.co2   1  UNL1       -0.5444
     31 O         141.6693  141.4699  171.4960 O.co2   1  UNL1       -0.5444
     32 C         139.6398  139.4853  166.2319 C.3     1  UNL1        0.0857
     33 C         139.1890  138.2784  165.4637 C.3     1  UNL1        0.0245
     34 C         138.1957  139.3312  165.8569 C.3     1  UNL1        0.0245
@<TRIPOS>UNITY_ATOM_ATTR
30 1
charge -1
@<TRIPOS>BOND
     1    19    20    2
     2    20    23    1
     3    23    24    1
     4    24    25   ar
     5    25    26   ar
     6    26    27   ar
     7    27    28   ar
     8    20    21   am
     9    21    14    1
    10    14    15    1
    11    15    16    1
    12    16    17    1
    13    17     1    1
    14     1     2   ar
    15     2     3    1
    16     2     4   ar
    17     4     5   ar
    18     5     6   ar
    19     6     7    2
    20     6     8   ar
    21     8    29    1
    22    29    30   ar
    23    29    31   ar
    24     8     9   ar
    25     9    10   ar
    26    10    32    1
    27    32    33    1
    28    33    34    1
    29    10    11   ar
    30    11    12   ar
    31    12    13    1
    32    17    18    1
    33    28    24   ar
    34    18    14    1
    35    12     1   ar
    36    11     5   ar
    37    34    32    1
    38    21    22    1
@<TRIPOS>MOLECULE
*****
 34 38 0 0 0
SMALL
GASTEIGER

@<TRIPOS>ATOM
      1 C         140.6475  139.5984  164.2819 C.ar    1  UNL1        0.0878
      2 C         141.3252  138.6691  165.2447 C.ar    1  UNL1        0.1543
      3 F         141.7312  137.2949  164.8010 F       1  UNL1       -0.2028
      4 C         141.5968  139.1139  166.6513 C.ar    1  UNL1        0.0356
      5 C         141.1908  140.4880  167.0950 C.ar    1  UNL1        0.0580
      6 C         141.4624  140.9328  168.5016 C.ar    1  UNL1        0.1996
      7 O         142.1401  140.0035  169.4644 O.2     1  UNL1       -0.2864
      8 C         141.0564  142.3069  168.9453 C.ar    1  UNL1        0.0701
      9 C         140.3787  143.2363  167.9824 C.ar    1  UNL1        0.0801
     10 N         140.1071  142.7915  166.5758 N.ar    1  UNL1       -0.3270
     11 C         140.5131  141.4173  166.1321 C.ar    1  UNL1        0.0750
     12 C         140.2415  140.9725  164.7256 C.ar    1  UNL1        0.0890
     13 CL        139.5638  141.9019  163.7627 Cl      1  UNL1       -0.0794
     14 C         140.5918  138.7997  160.4839 C.3     1  UNL1        0.0930
     15 C         139.3240  138.1387  160.9378 C.3     1  UNL1        0.0427
     16 C         139.1906  138.3575  162.4157 C.3     1  UNL1        0.0927
     17 N         140.3758  139.1536  162.8753 N.pl3   1  UNL1       -0.3033
     18 C         141.2418  139.4269  161.6814 C.3     1  UNL1        0.1104
     19 O         143.0775  137.2742  159.7808 O.2     1  UNL1       -0.2730
     20 C         142.3600  138.0657  158.7277 C.2     1  UNL1        0.2456
     21 N         141.1172  138.8284  159.0793 N.am    1  UNL1       -0.3026
     22 H         140.6463  139.3478  158.3881 H       1  UNL1        0.1495
     23 C         142.8854  138.0944  157.3230 C.3     1  UNL1        0.1929
     24 N         142.7628  136.8797  156.4514 N.ar    1  UNL1       -0.2992
     25 C         141.4873  136.1753  156.0952 C.ar    1  UNL1        0.0984
     26 C         141.8304  135.0165  155.2067 C.ar    1  UNL1        0.1193
     27 N         143.3178  135.0048  155.0137 N.ar    1  UNL1       -0.2223
     28 C         143.8941  136.1563  155.7830 C.ar    1  UNL1        0.1790
     29 C         141.3280  142.7517  170.3518 C.2     1  UNL1        0.0774
     30 O         142.6144  143.4486  170.6828 O.co2   1  UNL1       -0.5444
     31 O         140.3133  142.4997  171.4273 O.co2   1  UNL1       -0.5444
     32 C         139.4294  143.7208  165.6130 C.3     1  UNL1        0.0857
     33 C         138.1743  144.2633  164.9963 C.3     1  UNL1        0.0245
     34 C         139.5107  144.7881  164.5622 C.3     1  UNL1        0.0245
@<TRIPOS>UNITY_ATOM_ATTR
30 1
charge -1
@<TRIPOS>BOND
     1    19    20    2
     2    20    23    1
     3    23    24    1
     4    24    25   ar
     5    25    26   ar
     6    26    27   ar
     7    27    28   ar
     8    20    21   am
     9    21    14    1
    10    14    15    1
    11    15    16    1
    12    16    17    1
    13    17     1    1
    14     1     2   ar
    15     2     3    1
    16     2     4   ar
    17     4     5   ar
    18     5     6   ar
    19     6     7    2
    20     6     8   ar
    21     8    29    1
    22    29    30   ar
    23    29    31   ar
    24     8     9   ar
    25     9    10   ar
    26    10    32    1
    27    32    33    1
    28    33    34    1
    29    10    11   ar
    30    11    12   ar
    31    12    13    1
    32    17    18    1
    33    28    24   ar
    34    18    14    1
    35    12     1   ar
    36    11     5   ar
    37    34    32    1
    38    21    22    1
@<TRIPOS>MOLECULE
*****
 34 38 0 0 0
SMALL
GASTEIGER

@<TRIPOS>ATOM
      1 C         142.8110  141.5138  164.2705 C.ar    1  UNL1        0.0878
      2 C         143.8316  142.2871  165.0517 C.ar    1  UNL1        0.1543
      3 F         145.0488  142.8305  164.3637 F       1  UNL1       -0.2028
      4 C         143.6351  142.5170  166.5209 C.ar    1  UNL1        0.0356
      5 C         142.4180  141.9736  167.2088 C.ar    1  UNL1        0.0580
      6 C         142.2215  142.2035  168.6781 C.ar    1  UNL1        0.1996
      7 O         143.2421  142.9767  169.4593 O.2     1  UNL1       -0.2864
      8 C         141.0043  141.6601  169.3660 C.ar    1  UNL1        0.0701
      9 C         139.9837  140.8868  168.5847 C.ar    1  UNL1        0.0801
     10 N         140.1802  140.6569  167.1156 N.ar    1  UNL1       -0.3270
     11 C         141.3974  141.2003  166.4276 C.ar    1  UNL1        0.0750
     12 C         141.5939  140.9704  164.9584 C.ar    1  UNL1        0.0890
     13 CL        140.5732  140.1971  164.1771 Cl      1  UNL1       -0.0794
     14 C         143.4007  140.1964  160.6673 C.3     1  UNL1        0.0930
     15 C         143.2191  141.6637  160.4135 C.3     1  UNL1        0.0427
     16 C         142.9761  142.3357  161.7323 C.3     1  UNL1        0.0927
     17 N         143.0075  141.2839  162.8012 N.pl3   1  UNL1       -0.3033
     18 C         143.2699  139.9618  162.1431 C.3     1  UNL1        0.1104
     19 O         141.1334  138.5737  159.5599 O.2     1  UNL1       -0.2730
     20 C         142.5328  138.3366  159.0742 C.2     1  UNL1        0.2456
     21 N         143.6664  139.1481  159.6280 N.am    1  UNL1       -0.3026
     22 H         144.5848  138.9925  159.3092 H       1  UNL1        0.1495
     23 C         142.7985  137.2883  158.0349 C.3     1  UNL1        0.1929
     24 N         141.9809  137.2543  156.7778 N.ar    1  UNL1       -0.2992
     25 C         141.5038  136.0212  156.0694 C.ar    1  UNL1        0.0984
     26 C         140.7249  136.4523  154.8621 C.ar    1  UNL1        0.1193
     27 N         140.7205  137.9517  154.8244 N.ar    1  UNL1       -0.2223
     28 C         141.4968  138.4474  156.0083 C.ar    1  UNL1        0.1790
     29 C         140.8078  141.8899  170.8352 C.2     1  UNL1        0.0774
     30 O         139.7622  142.8549  171.3101 O.co2   1  UNL1       -0.5444
     31 O         141.6570  141.1549  171.8295 O.co2   1  UNL1       -0.5444
     32 C         139.1596  139.8836  166.3343 C.3     1  UNL1        0.0857
     33 C         138.0213  139.8526  165.3580 C.3     1  UNL1        0.0245
     34 C         138.5301  138.5753  165.9575 C.3     1  UNL1        0.0245
@<TRIPOS>UNITY_ATOM_ATTR
30 1
charge -1
@<TRIPOS>BOND
     1    19    20    2
     2    20    23    1
     3    23    24    1
     4    24    25   ar
     5    25    26   ar
     6    26    27   ar
     7    27    28   ar
     8    20    21   am
     9    21    14    1
    10    14    15    1
    11    15    16    1
    12    16    17    1
    13    17     1    1
    14     1     2   ar
    15     2     3    1
    16     2     4   ar
    17     4     5   ar
    18     5     6   ar
    19     6     7    2
    20     6     8   ar
    21     8    29    1
    22    29    30   ar
    23    29    31   ar
    24     8     9   ar
    25     9    10   ar
    26    10    32    1
    27    32    33    1
    28    33    34    1
    29    10    11   ar
    30    11    12   ar
    31    12    13    1
    32    17    18    1
    33    28    24   ar
    34    18    14    1
    35    12     1   ar
    36    11     5   ar
    37    34    32    1
    38    21    22    1
@<TRIPOS>MOLECULE
*****
 34 38 0 0 0
SMALL
GASTEIGER

@<TRIPOS>ATOM
      1 C         143.0290  141.6773  164.6618 C.ar    1  UNL1        0.0878
      2 C         143.9267  142.4742  165.5612 C.ar    1  UNL1        0.1543
      3 F         145.2137  143.0337  165.0316 F       1  UNL1       -0.2028
      4 C         143.5374  142.7116  166.9902 C.ar    1  UNL1        0.0356
      5 C         142.2503  142.1521  167.5198 C.ar    1  UNL1        0.0580
      6 C         141.8610  142.3896  168.9488 C.ar    1  UNL1        0.1996
      7 O         142.7587  143.1865  169.8482 O.2     1  UNL1       -0.2864
      8 C         140.5740  141.8300  169.4784 C.ar    1  UNL1        0.0701
      9 C         139.6762  141.0331  168.5789 C.ar    1  UNL1        0.0801
     10 N         140.0655  140.7957  167.1500 N.ar    1  UNL1       -0.3270
     11 C         141.3526  141.3552  166.6204 C.ar    1  UNL1        0.0750
     12 C         141.7419  141.1178  165.1914 C.ar    1  UNL1        0.0890
     13 CL        140.8442  140.3208  164.2919 Cl      1  UNL1       -0.0794
     14 C         143.8904  141.7973  160.8790 C.3     1  UNL1        0.0930
     15 C         144.1443  140.3517  161.1884 C.3     1  UNL1        0.0427
     16 C         143.8525  140.1307  162.6431 C.3     1  UNL1        0.0927
     17 N         143.4183  141.4398  163.2328 N.pl3   1  UNL1       -0.3033
     18 C         143.4417  142.4698  162.1425 C.3     1  UNL1        0.1104
     19 O         141.4738  142.5869  159.2862 O.2     1  UNL1       -0.2730
     20 C         142.8478  142.8497  158.7447 C.2     1  UNL1        0.2456
     21 N         144.0561  142.4550  159.5411 N.am    1  UNL1       -0.3026
     22 H         144.9578  142.6275  159.1857 H       1  UNL1        0.1495
     23 C         143.0135  143.5074  157.4068 C.3     1  UNL1        0.1929
     24 N         141.9406  144.4125  156.8779 N.ar    1  UNL1       -0.2992
     25 C         141.7488  145.8562  157.2371 C.ar    1  UNL1        0.0984
     26 C         140.5609  146.3688  156.4783 C.ar    1  UNL1        0.1193
     27 N         140.0185  145.2420  155.6500 N.ar    1  UNL1       -0.2223
     28 C         140.8712  144.0330  155.8970 C.ar    1  UNL1        0.1790
     29 C         140.1846  142.0675  170.9074 C.2     1  UNL1        0.0774
     30 O         140.7581  141.2069  171.9939 O.co2   1  UNL1       -0.5444
     31 O         139.2218  143.1655  171.2499 O.co2   1  UNL1       -0.5444
     32 C         139.1678  139.9987  166.2506 C.3     1  UNL1        0.0857
     33 C         138.1589  139.9413  165.1420 C.3     1  UNL1        0.0245
     34 C         138.6218  138.6759  165.8013 C.3     1  UNL1        0.0245
@<TRIPOS>UNITY_ATOM_ATTR
30 1
charge -1
@<TRIPOS>BOND
     1    19    20    2
     2    20    23    1
     3    23    24    1
     4    24    25   ar
     5    25    26   ar
     6    26    27   ar
     7    27    28   ar
     8    20    21   am
     9    21    14    1
    10    14    15    1
    11    15    16    1
    12    16    17    1
    13    17     1    1
    14     1     2   ar
    15     2     3    1
    16     2     4   ar
    17     4     5   ar
    18     5     6   ar
    19     6     7    2
    20     6     8   ar
    21     8    29    1
    22    29    30   ar
    23    29    31   ar
    24     8     9   ar
    25     9    10   ar
    26    10    32    1
    27    32    33    1
    28    33    34    1
    29    10    11   ar
    30    11    12   ar
    31    12    13    1
    32    17    18    1
    33    28    24   ar
    34    18    14    1
    35    12     1   ar
    36    11     5   ar
    37    34    32    1
    38    21    22    1
@<TRIPOS>MOLECULE
*****
 34 38 0 0 0
SMALL
GASTEIGER

@<TRIPOS>ATOM
      1 C         140.7123  143.1862  164.1177 C.ar    1  UNL1        0.0878
      2 C         139.9253  143.7961  165.2395 C.ar    1  UNL1        0.1543
      3 F         139.0348  144.9743  164.9770 F       1  UNL1       -0.2028
      4 C         140.0288  143.2279  166.6238 C.ar    1  UNL1        0.0356
      5 C         140.9193  142.0497  166.8863 C.ar    1  UNL1        0.0580
      6 C         141.0228  141.4814  168.2707 C.ar    1  UNL1        0.1996
      7 O         140.2357  142.0914  169.3925 O.2     1  UNL1       -0.2864
      8 C         141.9133  140.3033  168.5331 C.ar    1  UNL1        0.0701
      9 C         142.7003  139.6933  167.4112 C.ar    1  UNL1        0.0801
     10 N         142.5968  140.2616  166.0269 N.ar    1  UNL1       -0.3270
     11 C         141.7063  141.4398  165.7645 C.ar    1  UNL1        0.0750
     12 C         141.6028  142.0080  164.3802 C.ar    1  UNL1        0.0890
     13 CL        142.3899  141.3981  163.2582 Cl      1  UNL1       -0.0794
     14 C         140.0103  144.0556  160.4005 C.3     1  UNL1        0.0930
     15 C         140.8889  145.2020  160.8055 C.3     1  UNL1        0.0427
     16 C         141.2588  145.0159  162.2472 C.3     1  UNL1        0.0927
     17 N         140.6089  143.7545  162.7333 N.pl3   1  UNL1       -0.3033
     18 C         139.8373  143.1610  161.5920 C.3     1  UNL1        0.1104
     19 O         141.3980  142.2933  158.4084 O.2     1  UNL1       -0.2730
     20 C         140.1040  142.9603  158.0465 C.2     1  UNL1        0.2456
     21 N         139.4102  143.8415  159.0426 N.am    1  UNL1       -0.3026
     22 H         138.5610  144.2793  158.8051 H       1  UNL1        0.1495
     23 C         139.5039  142.7462  156.6886 C.3     1  UNL1        0.1929
     24 N         138.7912  143.8708  155.9977 N.ar    1  UNL1       -0.2992
     25 C         139.3005  145.2728  155.8402 C.ar    1  UNL1        0.0984
     26 C         138.2681  146.0593  155.0882 C.ar    1  UNL1        0.1193
     27 N         137.1207  145.1434  154.7810 N.ar    1  UNL1       -0.2223
     28 C         137.4440  143.7908  155.3431 C.ar    1  UNL1        0.1790
     29 C         142.0168  139.7350  169.9174 C.2     1  UNL1        0.0774
     30 O         140.7998  139.1724  170.5901 O.co2   1  UNL1       -0.5444
     31 O         143.3372  139.7293  170.6291 O.co2   1  UNL1       -0.5444
     32 C         143.3838  139.6517  164.9051 C.3     1  UNL1        0.0857
     33 C         144.6786  139.4875  164.1658 C.3     1  UNL1        0.0245
     34 C         143.4522  138.7594  163.7013 C.3     1  UNL1        0.0245
@<TRIPOS>UNITY_ATOM_ATTR
30 1
charge -1
@<TRIPOS>BOND
     1    19    20    2
     2    20    23    1
     3    23    24    1
     4    24    25   ar
     5    25    26   ar
     6    26    27   ar
     7    27    28   ar
     8    20    21   am
     9    21    14    1
    10    14    15    1
    11    15    16    1
    12    16    17    1
    13    17     1    1
    14     1     2   ar
    15     2     3    1
    16     2     4   ar
    17     4     5   ar
    18     5     6   ar
    19     6     7    2
    20     6     8   ar
    21     8    29    1
    22    29    30   ar
    23    29    31   ar
    24     8     9   ar
    25     9    10   ar
    26    10    32    1
    27    32    33    1
    28    33    34    1
    29    10    11   ar
    30    11    12   ar
    31    12    13    1
    32    17    18    1
    33    28    24   ar
    34    18    14    1
    35    12     1   ar
    36    11     5   ar
    37    34    32    1
    38    21    22    1
@<TRIPOS>MOLECULE
*****
 34 38 0 0 0
SMALL
GASTEIGER

@<TRIPOS>ATOM
      1 C         141.7504  142.4408  163.9284 C.ar    1  UNL1        0.0878
      2 C         142.8592  143.2343  164.5533 C.ar    1  UNL1        0.1543
      3 F         143.6108  144.2442  163.7377 F       1  UNL1       -0.2028
      4 C         143.2166  143.0180  165.9940 C.ar    1  UNL1        0.0356
      5 C         142.4650  142.0081  166.8096 C.ar    1  UNL1        0.0580
      6 C         142.8224  141.7919  168.2504 C.ar    1  UNL1        0.1996
      7 O         143.9312  142.5854  168.8753 O.2     1  UNL1       -0.2864
      8 C         142.0708  140.7820  169.0660 C.ar    1  UNL1        0.0701
      9 C         140.9619  139.9884  168.4410 C.ar    1  UNL1        0.0801
     10 N         140.6046  140.2047  167.0004 N.ar    1  UNL1       -0.3270
     11 C         141.3561  141.2146  166.1847 C.ar    1  UNL1        0.0750
     12 C         140.9988  141.4309  164.7440 C.ar    1  UNL1        0.0890
     13 CL        139.8899  140.6373  164.1190 Cl      1  UNL1       -0.0794
     14 C         141.4374  142.5826  160.0621 C.3     1  UNL1        0.0930
     15 C         140.2488  143.3971  160.4792 C.3     1  UNL1        0.0427
     16 C         140.2214  143.4431  161.9783 C.3     1  UNL1        0.0927
     17 N         141.3930  142.6571  162.4877 N.pl3   1  UNL1       -0.3033
     18 C         142.1445  142.1252  161.3034 C.3     1  UNL1        0.1104
     19 O         142.6720  144.7257  158.3641 O.2     1  UNL1       -0.2730
     20 C         142.4642  143.3503  157.8024 C.2     1  UNL1        0.2456
     21 N         141.8469  142.2788  158.6515 N.am    1  UNL1       -0.3026
     22 H         141.7106  141.3762  158.2828 H       1  UNL1        0.1495
     23 C         142.8738  143.0465  156.3918 C.3     1  UNL1        0.1929
     24 N         144.2544  142.5350  156.1052 N.ar    1  UNL1       -0.2992
     25 C         144.8097  142.2069  154.7510 C.ar    1  UNL1        0.0984
     26 C         146.2207  141.7309  154.9315 C.ar    1  UNL1        0.1193
     27 N         146.5374  141.7648  156.3972 N.ar    1  UNL1       -0.2223
     28 C         145.3222  142.2618  157.1226 C.ar    1  UNL1        0.1790
     29 C         142.4281  140.5657  170.5067 C.2     1  UNL1        0.0774
     30 O         141.6809  141.2964  171.5826 O.co2   1  UNL1       -0.5444
     31 O         143.5327  139.6186  170.8714 O.co2   1  UNL1       -0.5444
     32 C         139.4957  139.4112  166.3754 C.3     1  UNL1        0.0857
     33 C         138.0329  139.2046  166.1153 C.3     1  UNL1        0.0245
     34 C         139.0377  138.2433  165.5531 C.3     1  UNL1        0.0245
@<TRIPOS>UNITY_ATOM_ATTR
30 1
charge -1
@<TRIPOS>BOND
     1    19    20    2
     2    20    23    1
     3    23    24    1
     4    24    25   ar
     5    25    26   ar
     6    26    27   ar
     7    27    28   ar
     8    20    21   am
     9    21    14    1
    10    14    15    1
    11    15    16    1
    12    16    17    1
    13    17     1    1
    14     1     2   ar
    15     2     3    1
    16     2     4   ar
    17     4     5   ar
    18     5     6   ar
    19     6     7    2
    20     6     8   ar
    21     8    29    1
    22    29    30   ar
    23    29    31   ar
    24     8     9   ar
    25     9    10   ar
    26    10    32    1
    27    32    33    1
    28    33    34    1
    29    10    11   ar
    30    11    12   ar
    31    12    13    1
    32    17    18    1
    33    28    24   ar
    34    18    14    1
    35    12     1   ar
    36    11     5   ar
    37    34    32    1
    38    21    22    1
@<TRIPOS>MOLECULE
*****
 34 38 0 0 0
SMALL
GASTEIGER

@<TRIPOS>ATOM
      1 C         142.8826  140.8023  164.5676 C.ar    1  UNL1        0.0878
      2 C         143.8378  141.6911  165.3076 C.ar    1  UNL1        0.1543
      3 F         145.1326  142.0973  164.6685 F       1  UNL1       -0.2028
      4 C         143.4981  142.1736  166.6866 C.ar    1  UNL1        0.0356
      5 C         142.2032  141.7674  167.3256 C.ar    1  UNL1        0.0580
      6 C         141.8636  142.2500  168.7047 C.ar    1  UNL1        0.1996
      7 O         142.8188  143.1388  169.4447 O.2     1  UNL1       -0.2864
      8 C         140.5687  141.8438  169.3437 C.ar    1  UNL1        0.0701
      9 C         139.6135  140.9550  168.6036 C.ar    1  UNL1        0.0801
     10 N         139.9532  140.4724  167.2246 N.ar    1  UNL1       -0.3270
     11 C         141.2480  140.8786  166.5856 C.ar    1  UNL1        0.0750
     12 C         141.5877  140.3961  165.2066 C.ar    1  UNL1        0.0890
     13 CL        140.6325  139.5072  164.4665 Cl      1  UNL1       -0.0794
     14 C         143.4449  140.1995  160.7746 C.3     1  UNL1        0.0930
     15 C         144.0448  138.9546  161.3580 C.3     1  UNL1        0.0427
     16 C         143.9072  139.0289  162.8499 C.3     1  UNL1        0.0927
     17 N         143.2222  140.3197  163.1885 N.pl3   1  UNL1       -0.3033
     18 C         142.9365  141.0432  161.9059 C.3     1  UNL1        0.1104
     19 O         141.1588  139.1864  159.1171 O.2     1  UNL1       -0.2730
     20 C         142.2239  140.0343  158.4872 C.2     1  UNL1        0.2456
     21 N         143.3670  140.5409  159.3161 N.am    1  UNL1       -0.3026
     22 H         144.0661  141.0973  158.9027 H       1  UNL1        0.1495
     23 C         142.1461  140.3756  157.0287 C.3     1  UNL1        0.1929
     24 N         143.2890  140.0388  156.1175 N.ar    1  UNL1       -0.2992
     25 C         144.1431  141.0224  155.3738 C.ar    1  UNL1        0.0984
     26 C         145.1605  140.2507  154.5868 C.ar    1  UNL1        0.1193
     27 N         144.9353  138.7903  154.8441 N.ar    1  UNL1       -0.2223
     28 C         143.7786  138.6593  155.7901 C.ar    1  UNL1        0.1790
     29 C         140.2291  142.3264  170.7227 C.2     1  UNL1        0.0774
     30 O         139.5312  143.6414  170.9064 O.co2   1  UNL1       -0.5444
     31 O         140.5873  141.4939  171.9180 O.co2   1  UNL1       -0.5444
     32 C         138.9980  139.5836  166.4846 C.3     1  UNL1        0.0857
     33 C         138.3256  138.2533  166.3172 C.3     1  UNL1        0.0245
     34 C         138.0159  139.3745  165.3703 C.3     1  UNL1        0.0245
@<TRIPOS>UNITY_ATOM_ATTR
30 1
charge -1
@<TRIPOS>BOND
     1    19    20    2
     2    20    23    1
     3    23    24    1
     4    24    25   ar
     5    25    26   ar
     6    26    27   ar
     7    27    28   ar
     8    20    21   am
     9    21    14    1
    10    14    15    1
    11    15    16    1
    12    16    17    1
    13    17     1    1
    14     1     2   ar
    15     2     3    1
    16     2     4   ar
    17     4     5   ar
    18     5     6   ar
    19     6     7    2
    20     6     8   ar
    21     8    29    1
    22    29    30   ar
    23    29    31   ar
    24     8     9   ar
    25     9    10   ar
    26    10    32    1
    27    32    33    1
    28    33    34    1
    29    10    11   ar
    30    11    12   ar
    31    12    13    1
    32    17    18    1
    33    28    24   ar
    34    18    14    1
    35    12     1   ar
    36    11     5   ar
    37    34    32    1
    38    21    22    1
