@<TRIPOS>MOLECULE
*****
 35 40 0 0 0
SMALL
GASTEIGER

@<TRIPOS>ATOM
      1 C         142.0334  136.1557  155.3219 C.ar    1  UNL1       -0.0065
      2 C         141.0670  136.6063  154.2669 C.ar    1  UNL1       -0.0032
      3 C         139.9836  137.5849  154.6110 C.ar    1  UNL1       -0.0026
      4 C         139.8666  138.1130  156.0101 C.ar    1  UNL1        0.0019
      5 C         140.8330  137.6624  157.0651 C.ar    1  UNL1       -0.0200
      6 C         141.9164  136.6838  156.7209 C.ar    1  UNL1       -0.0071
      7 C         140.4725  138.3506  158.3482 C.3     1  UNL1        0.0519
      8 C         139.2832  139.2264  158.0863 C.2     1  UNL1        0.0074
      9 C         138.3255  140.1930  158.7175 C.2     1  UNL1        0.0976
     10 N         137.3591  140.6436  157.6625 N.2     1  UNL1       -0.1526
     11 N         137.7196  139.9555  156.3793 N.2     1  UNL1       -0.1678
     12 C         138.9088  139.0796  156.6412 C.3     1  UNL1        0.1672
     13 C         138.3329  140.6320  160.1518 C.ar    1  UNL1        0.0265
     14 C         138.4019  142.0487  160.6399 C.ar    1  UNL1        0.0376
     15 S         138.3842  142.0235  162.1396 S.2     1  UNL1       -0.0780
     16 C         138.3042  140.5913  162.5783 C.ar    1  UNL1        0.0711
     17 C         138.2724  139.7313  161.3498 C.ar    1  UNL1        0.0168
     18 C         138.2631  140.1046  163.9965 C.1     1  UNL1       -0.0543
     19 C         138.2220  139.6179  165.4148 C.1     1  UNL1       -0.0388
     20 C         138.1809  139.1312  166.8330 C.3     1  UNL1        0.2815
     21 O         139.3967  139.2526  167.7032 O.3     1  UNL1       -0.4596
     22 C         139.6280  140.5033  168.4984 C.ar    1  UNL1        0.1591
     23 C         140.3167  141.6768  167.8671 C.ar    1  UNL1        0.0402
     24 C         140.5480  142.9275  168.6623 C.ar    1  UNL1        0.0238
     25 C         140.0906  143.0046  170.0887 C.ar    1  UNL1        0.0991
     26 N         139.4018  141.8311  170.7200 N.ar    1  UNL1       -0.2391
     27 C         139.1705  140.5805  169.9248 C.ar    1  UNL1        0.1357
     28 C         143.1168  135.1770  154.9778 C.3     1  UNL1        0.0992
     29 C         143.3560  129.8659  157.7588 C.3     1  UNL1        0.0897
     30 N         143.2962  131.1937  157.0636 N.3     1  UNL1       -0.2691
     31 C         142.3227  131.4104  155.9433 C.3     1  UNL1        0.0897
     32 C         142.2628  132.7382  155.2480 C.3     1  UNL1        0.0899
     33 N         143.1766  133.8492  155.6730 N.3     1  UNL1       -0.2665
     34 C         144.1502  133.6324  156.7934 C.3     1  UNL1        0.0899
     35 C         144.2100  132.3047  157.4887 C.3     1  UNL1        0.0897
@<TRIPOS>BOND
     1    29    30    1
     2    30    31    1
     3    31    32    1
     4    32    33    1
     5    33    28    1
     6    28     1    1
     7     1     2   ar
     8     2     3   ar
     9     3     4   ar
    10     4     5   ar
    11     5     6   ar
    12     5     7    1
    13     7     8    1
    14     8     9    2
    15     9    13    1
    16    13    14   ar
    17    14    15   ar
    18    15    16   ar
    19    16    18    1
    20    18    19    3
    21    19    20    1
    22    20    21    1
    23    21    22    1
    24    22    23   ar
    25    23    24   ar
    26    24    25   ar
    27    25    26   ar
    28    26    27   ar
    29    16    17   ar
    30     9    10    1
    31    10    11    2
    32    11    12    1
    33    33    34    1
    34    34    35    1
    35    35    30    1
    36     6     1   ar
    37    12     8    1
    38    12     4    1
    39    17    13   ar
    40    27    22   ar
@<TRIPOS>MOLECULE
*****
 35 40 0 0 0
SMALL
GASTEIGER

@<TRIPOS>ATOM
      1 C         139.8778  146.3451  156.1212 C.ar    1  UNL1       -0.0065
      2 C         140.8571  145.6650  155.2110 C.ar    1  UNL1       -0.0032
      3 C         141.9241  144.7803  155.7842 C.ar    1  UNL1       -0.0026
      4 C         142.0118  144.5756  157.2676 C.ar    1  UNL1        0.0019
      5 C         141.0325  145.2557  158.1778 C.ar    1  UNL1       -0.0200
      6 C         139.9655  146.1404  157.6045 C.ar    1  UNL1       -0.0071
      7 C         141.3640  144.8676  159.5883 C.3     1  UNL1        0.0519
      8 C         142.5482  143.9477  159.5498 C.2     1  UNL1        0.0074
      9 C         143.4849  143.1393  160.3979 C.2     1  UNL1        0.0976
     10 N         144.4642  142.4593  159.4877 N.2     1  UNL1       -0.1526
     11 N         144.1327  142.8473  158.0772 N.2     1  UNL1       -0.1678
     12 C         142.9486  143.7672  158.1156 C.3     1  UNL1        0.1672
     13 C         143.4487  143.0302  161.8935 C.ar    1  UNL1        0.0265
     14 C         143.6216  144.1605  162.8644 C.ar    1  UNL1        0.0376
     15 S         143.5130  143.6005  164.2517 S.2     1  UNL1       -0.0780
     16 C         143.2728  142.1242  164.1382 C.ar    1  UNL1        0.0711
     17 C         143.2331  141.7718  162.6807 C.ar    1  UNL1        0.0168
     18 C         143.1024  141.1682  165.2813 C.1     1  UNL1       -0.0543
     19 C         142.9319  140.2121  166.4246 C.1     1  UNL1       -0.0388
     20 C         142.7614  139.2561  167.5678 C.3     1  UNL1        0.2815
     21 O         142.8421  139.7541  168.9804 O.3     1  UNL1       -0.4596
     22 C         141.8866  140.8062  169.4603 C.ar    1  UNL1        0.1591
     23 C         142.2812  142.2528  169.4185 C.ar    1  UNL1        0.0402
     24 C         141.3258  143.3049  169.8985 C.ar    1  UNL1        0.0238
     25 C         139.9760  142.9104  170.4202 C.ar    1  UNL1        0.0991
     26 N         139.5815  141.4638  170.4620 N.ar    1  UNL1       -0.2391
     27 C         140.5368  140.4117  169.9821 C.ar    1  UNL1        0.1357
     28 C         138.8107  147.2299  155.5480 C.3     1  UNL1        0.0992
     29 C         140.1389  152.8390  153.8825 C.3     1  UNL1        0.0897
     30 N         139.8069  151.4367  154.2989 N.3     1  UNL1       -0.2691
     31 C         138.8855  151.1968  155.4579 C.3     1  UNL1        0.0897
     32 C         138.5534  149.7945  155.8743 C.3     1  UNL1        0.0899
     33 N         139.1427  148.6322  155.1316 N.3     1  UNL1       -0.2665
     34 C         140.0641  148.8721  153.9725 C.3     1  UNL1        0.0899
     35 C         140.3962  150.2744  153.5561 C.3     1  UNL1        0.0897
@<TRIPOS>BOND
     1    29    30    1
     2    30    31    1
     3    31    32    1
     4    32    33    1
     5    33    28    1
     6    28     1    1
     7     1     2   ar
     8     2     3   ar
     9     3     4   ar
    10     4     5   ar
    11     5     6   ar
    12     5     7    1
    13     7     8    1
    14     8     9    2
    15     9    13    1
    16    13    14   ar
    17    14    15   ar
    18    15    16   ar
    19    16    18    1
    20    18    19    3
    21    19    20    1
    22    20    21    1
    23    21    22    1
    24    22    23   ar
    25    23    24   ar
    26    24    25   ar
    27    25    26   ar
    28    26    27   ar
    29    16    17   ar
    30     9    10    1
    31    10    11    2
    32    11    12    1
    33    33    34    1
    34    34    35    1
    35    35    30    1
    36     6     1   ar
    37    12     8    1
    38    12     4    1
    39    17    13   ar
    40    27    22   ar
@<TRIPOS>MOLECULE
*****
 35 40 0 0 0
SMALL
GASTEIGER

@<TRIPOS>ATOM
      1 C         142.3079  136.9425  156.0605 C.ar    1  UNL1       -0.0065
      2 C         143.0332  137.8516  155.1132 C.ar    1  UNL1       -0.0032
      3 C         143.6336  139.1318  155.6138 C.ar    1  UNL1       -0.0026
      4 C         143.5087  139.5029  157.0618 C.ar    1  UNL1        0.0019
      5 C         142.7833  138.5938  158.0091 C.ar    1  UNL1       -0.0200
      6 C         142.1830  137.3137  157.5085 C.ar    1  UNL1       -0.0071
      7 C         142.8203  139.2196  159.3718 C.3     1  UNL1        0.0519
      8 C         143.5685  140.5155  159.2667 C.2     1  UNL1        0.0074
      9 C         144.0537  141.7031  160.0439 C.2     1  UNL1        0.0976
     10 N         144.7790  142.6122  159.0966 N.2     1  UNL1       -0.1526
     11 N         144.7420  141.9863  157.7339 N.2     1  UNL1       -0.1678
     12 C         143.9939  140.6906  157.8390 C.3     1  UNL1        0.1672
     13 C         143.8494  141.9401  161.5110 C.ar    1  UNL1        0.0265
     14 C         143.8483  143.2741  162.1969 C.ar    1  UNL1        0.0376
     15 S         143.6086  143.0431  163.6594 S.2     1  UNL1       -0.0780
     16 C         143.4616  141.5663  163.8775 C.ar    1  UNL1        0.0711
     17 C         143.6104  140.8846  162.5497 C.ar    1  UNL1        0.0168
     18 C         143.2099  140.8900  165.1925 C.1     1  UNL1       -0.0543
     19 C         142.9582  140.2136  166.5075 C.1     1  UNL1       -0.0388
     20 C         142.7066  139.5372  167.8224 C.3     1  UNL1        0.2815
     21 O         142.9905  140.2616  169.1049 O.3     1  UNL1       -0.4596
     22 C         141.9734  141.2061  169.6738 C.ar    1  UNL1        0.1591
     23 C         141.3540  142.2564  168.8002 C.ar    1  UNL1        0.0402
     24 C         140.3370  143.2009  169.3691 C.ar    1  UNL1        0.0238
     25 C         139.9394  143.0950  170.8115 C.ar    1  UNL1        0.0991
     26 N         140.5589  142.0447  171.6851 N.ar    1  UNL1       -0.2391
     27 C         141.5759  141.1003  171.1163 C.ar    1  UNL1        0.1357
     28 C         141.7075  135.6623  155.5599 C.3     1  UNL1        0.0992
     29 C         144.0747  130.3973  157.1956 C.3     1  UNL1        0.0897
     30 N         143.4829  131.7135  156.7866 N.3     1  UNL1       -0.2691
     31 C         144.1468  132.9943  157.1973 C.3     1  UNL1        0.0897
     32 C         143.5550  134.3106  156.7884 C.3     1  UNL1        0.0899
     33 N         142.2993  134.3461  155.9688 N.3     1  UNL1       -0.2665
     34 C         141.6353  133.0652  155.5581 C.3     1  UNL1        0.0899
     35 C         142.2271  131.7490  155.9670 C.3     1  UNL1        0.0897
@<TRIPOS>BOND
     1    29    30    1
     2    30    31    1
     3    31    32    1
     4    32    33    1
     5    33    28    1
     6    28     1    1
     7     1     2   ar
     8     2     3   ar
     9     3     4   ar
    10     4     5   ar
    11     5     6   ar
    12     5     7    1
    13     7     8    1
    14     8     9    2
    15     9    13    1
    16    13    14   ar
    17    14    15   ar
    18    15    16   ar
    19    16    18    1
    20    18    19    3
    21    19    20    1
    22    20    21    1
    23    21    22    1
    24    22    23   ar
    25    23    24   ar
    26    24    25   ar
    27    25    26   ar
    28    26    27   ar
    29    16    17   ar
    30     9    10    1
    31    10    11    2
    32    11    12    1
    33    33    34    1
    34    34    35    1
    35    35    30    1
    36     6     1   ar
    37    12     8    1
    38    12     4    1
    39    17    13   ar
    40    27    22   ar
@<TRIPOS>MOLECULE
*****
 35 40 0 0 0
SMALL
GASTEIGER

@<TRIPOS>ATOM
      1 C         143.5777  139.0244  164.9178 C.ar    1  UNL1       -0.0065
      2 C         144.3346  140.2653  164.5476 C.ar    1  UNL1       -0.0032
      3 C         144.4154  140.6944  163.1126 C.ar    1  UNL1       -0.0026
      4 C         143.7391  139.8827  162.0478 C.ar    1  UNL1        0.0019
      5 C         142.9821  138.6418  162.4181 C.ar    1  UNL1       -0.0200
      6 C         142.9014  138.2127  163.8531 C.ar    1  UNL1       -0.0071
      7 C         142.4212  138.0482  161.1599 C.3     1  UNL1        0.0519
      8 C         142.8315  138.9223  160.0120 C.2     1  UNL1        0.0074
      9 C         142.7384  139.0957  158.5249 C.2     1  UNL1        0.0976
     10 N         143.4954  140.3366  158.1547 N.2     1  UNL1       -0.1526
     11 N         144.0563  140.9301  159.4129 N.2     1  UNL1       -0.1678
     12 C         143.6460  140.0561  160.5607 C.3     1  UNL1        0.1672
     13 C         142.0153  138.1876  157.5750 C.ar    1  UNL1        0.0265
     14 C         140.6829  138.4561  156.9403 C.ar    1  UNL1        0.0376
     15 S         140.3418  137.2860  156.0660 S.2     1  UNL1       -0.0780
     16 C         141.4633  136.2943  156.1603 C.ar    1  UNL1        0.0711
     17 C         142.4975  136.8515  157.0929 C.ar    1  UNL1        0.0168
     18 C         141.5375  134.9768  155.4472 C.1     1  UNL1       -0.0543
     19 C         141.6117  133.6592  154.7340 C.1     1  UNL1       -0.0388
     20 C         141.6859  132.3416  154.0210 C.3     1  UNL1        0.2815
     21 O         142.9253  131.5028  154.1221 O.3     1  UNL1       -0.4596
     22 C         143.5208  131.2035  155.4660 C.ar    1  UNL1        0.1591
     23 C         144.6519  132.0390  155.9879 C.ar    1  UNL1        0.0402
     24 C         145.2474  131.7398  157.3317 C.ar    1  UNL1        0.0238
     25 C         144.7117  130.6051  158.1536 C.ar    1  UNL1        0.0991
     26 N         143.5806  129.7696  157.6316 N.ar    1  UNL1       -0.2391
     27 C         142.9851  130.0688  156.2878 C.ar    1  UNL1        0.1357
     28 C         143.4969  138.5952  166.3529 C.3     1  UNL1        0.0992
     29 C         139.2316  140.8464  169.9220 C.3     1  UNL1        0.0897
     30 N         140.2979  140.2836  169.0298 N.3     1  UNL1       -0.2691
     31 C         140.0576  140.1701  167.5535 C.3     1  UNL1        0.0897
     32 C         141.1240  139.6073  166.6612 C.3     1  UNL1        0.0899
     33 N         142.4306  139.1580  167.2452 N.3     1  UNL1       -0.2665
     34 C         142.6708  139.2716  168.7215 C.3     1  UNL1        0.0899
     35 C         141.6045  139.8344  169.6138 C.3     1  UNL1        0.0897
@<TRIPOS>BOND
     1    29    30    1
     2    30    31    1
     3    31    32    1
     4    32    33    1
     5    33    28    1
     6    28     1    1
     7     1     2   ar
     8     2     3   ar
     9     3     4   ar
    10     4     5   ar
    11     5     6   ar
    12     5     7    1
    13     7     8    1
    14     8     9    2
    15     9    13    1
    16    13    14   ar
    17    14    15   ar
    18    15    16   ar
    19    16    18    1
    20    18    19    3
    21    19    20    1
    22    20    21    1
    23    21    22    1
    24    22    23   ar
    25    23    24   ar
    26    24    25   ar
    27    25    26   ar
    28    26    27   ar
    29    16    17   ar
    30     9    10    1
    31    10    11    2
    32    11    12    1
    33    33    34    1
    34    34    35    1
    35    35    30    1
    36     6     1   ar
    37    12     8    1
    38    12     4    1
    39    17    13   ar
    40    27    22   ar
@<TRIPOS>MOLECULE
*****
 35 40 0 0 0
SMALL
GASTEIGER

@<TRIPOS>ATOM
      1 C         142.2246  137.4190  156.6050 C.ar    1  UNL1       -0.0065
      2 C         143.2627  138.2892  155.9609 C.ar    1  UNL1       -0.0032
      3 C         143.7504  139.5208  156.6646 C.ar    1  UNL1       -0.0026
      4 C         143.2000  139.8822  158.0124 C.ar    1  UNL1        0.0019
      5 C         142.1619  139.0119  158.6565 C.ar    1  UNL1       -0.0200
      6 C         141.6742  137.7803  157.9528 C.ar    1  UNL1       -0.0071
      7 C         141.8067  139.6177  159.9819 C.3     1  UNL1        0.0519
      8 C         142.6254  140.8624  160.1570 C.2     1  UNL1        0.0074
      9 C         142.9118  142.0060  161.0844 C.2     1  UNL1        0.0976
     10 N         143.9499  142.8762  160.4404 N.2     1  UNL1       -0.1526
     11 N         144.3051  142.2705  159.1149 N.2     1  UNL1       -0.1678
     12 C         143.4865  141.0259  158.9398 C.3     1  UNL1        0.1672
     13 C         142.2723  142.2385  162.4213 C.ar    1  UNL1        0.0265
     14 C         142.0851  143.5683  163.0897 C.ar    1  UNL1        0.0376
     15 S         141.4049  143.3337  164.4059 S.2     1  UNL1       -0.0780
     16 C         141.1717  141.8590  164.5508 C.ar    1  UNL1        0.0711
     17 C         141.7078  141.1822  163.3243 C.ar    1  UNL1        0.0168
     18 C         140.5174  141.1803  165.7175 C.1     1  UNL1       -0.0543
     19 C         139.8630  140.5016  166.8843 C.1     1  UNL1       -0.0388
     20 C         139.2087  139.8229  168.0510 C.3     1  UNL1        0.2815
     21 O         139.8827  139.8190  169.3910 O.3     1  UNL1       -0.4596
     22 C         140.9033  140.8678  169.7203 C.ar    1  UNL1        0.1591
     23 C         142.3653  140.5594  169.5880 C.ar    1  UNL1        0.0402
     24 C         143.3858  141.6082  169.9172 C.ar    1  UNL1        0.0238
     25 C         142.9444  142.9654  170.3788 C.ar    1  UNL1        0.0991
     26 N         141.4825  143.2738  170.5111 N.ar    1  UNL1       -0.2391
     27 C         140.4619  142.2250  170.1818 C.ar    1  UNL1        0.1357
     28 C         141.7368  136.1873  155.9013 C.3     1  UNL1        0.0992
     29 C         143.9887  130.8167  157.3455 C.3     1  UNL1        0.0897
     30 N         143.4257  132.1594  156.9844 N.3     1  UNL1       -0.2691
     31 C         142.2936  132.2593  156.0056 C.3     1  UNL1        0.0897
     32 C         141.7305  133.6020  155.6445 C.3     1  UNL1        0.0899
     33 N         142.2997  134.8447  156.2624 N.3     1  UNL1       -0.2665
     34 C         143.4319  134.7447  157.2413 C.3     1  UNL1        0.0899
     35 C         143.9949  133.4021  157.6023 C.3     1  UNL1        0.0897
@<TRIPOS>BOND
     1    29    30    1
     2    30    31    1
     3    31    32    1
     4    32    33    1
     5    33    28    1
     6    28     1    1
     7     1     2   ar
     8     2     3   ar
     9     3     4   ar
    10     4     5   ar
    11     5     6   ar
    12     5     7    1
    13     7     8    1
    14     8     9    2
    15     9    13    1
    16    13    14   ar
    17    14    15   ar
    18    15    16   ar
    19    16    18    1
    20    18    19    3
    21    19    20    1
    22    20    21    1
    23    21    22    1
    24    22    23   ar
    25    23    24   ar
    26    24    25   ar
    27    25    26   ar
    28    26    27   ar
    29    16    17   ar
    30     9    10    1
    31    10    11    2
    32    11    12    1
    33    33    34    1
    34    34    35    1
    35    35    30    1
    36     6     1   ar
    37    12     8    1
    38    12     4    1
    39    17    13   ar
    40    27    22   ar
@<TRIPOS>MOLECULE
*****
 35 40 0 0 0
SMALL
GASTEIGER

@<TRIPOS>ATOM
      1 C         142.6590  130.1651  155.9417 C.ar    1  UNL1       -0.0065
      2 C         141.6958  130.3885  154.8139 C.ar    1  UNL1       -0.0032
      3 C         141.2136  131.7744  154.5028 C.ar    1  UNL1       -0.0026
      4 C         141.6948  132.9369  155.3196 C.ar    1  UNL1        0.0019
      5 C         142.6581  132.7135  156.4474 C.ar    1  UNL1       -0.0200
      6 C         143.1402  131.3276  156.7585 C.ar    1  UNL1       -0.0071
      7 C         142.9552  134.0437  157.0736 C.3     1  UNL1        0.0519
      8 C         142.1756  135.0893  156.3327 C.2     1  UNL1        0.0074
      9 C         141.8774  136.5577  156.2619 C.2     1  UNL1        0.0976
     10 N         140.9141  136.7811  155.1340 N.2     1  UNL1       -0.1526
     11 N         140.6170  135.4508  154.5079 N.2     1  UNL1       -0.1678
     12 C         141.3966  134.4053  155.2487 C.3     1  UNL1        0.1672
     13 C         142.4432  137.6167  157.1610 C.ar    1  UNL1        0.0265
     14 C         142.8279  139.0076  156.7517 C.ar    1  UNL1        0.0376
     15 S         143.3460  139.7212  157.9651 S.2     1  UNL1       -0.0780
     16 C         143.2816  138.7714  159.1243 C.ar    1  UNL1        0.0711
     17 C         142.7236  137.4707  158.6273 C.ar    1  UNL1        0.0168
     18 C         143.7014  139.0698  160.5330 C.1     1  UNL1       -0.0543
     19 C         144.1213  139.3682  161.9418 C.1     1  UNL1       -0.0388
     20 C         144.5411  139.6666  163.3506 C.3     1  UNL1        0.2815
     21 O         145.4503  140.8259  163.6327 O.3     1  UNL1       -0.4596
     22 C         144.9117  142.2256  163.6045 C.ar    1  UNL1        0.1591
     23 C         144.6037  142.9367  164.8888 C.ar    1  UNL1        0.0402
     24 C         144.0651  144.3363  164.8607 C.ar    1  UNL1        0.0238
     25 C         143.8345  145.0249  163.5482 C.ar    1  UNL1        0.0991
     26 N         144.1425  144.3139  162.2639 N.ar    1  UNL1       -0.2391
     27 C         144.6811  142.9142  162.2920 C.ar    1  UNL1        0.1357
     28 C         143.1412  128.7791  156.2529 C.3     1  UNL1        0.0992
     29 C         145.3846  127.5300  161.6756 C.3     1  UNL1        0.0897
     30 N         144.8238  127.8423  160.3200 N.3     1  UNL1       -0.2691
     31 C         143.3390  127.9245  160.1233 C.3     1  UNL1        0.0897
     32 C         142.7781  128.2368  158.7676 C.3     1  UNL1        0.0899
     33 N         143.7020  128.4669  157.6086 N.3     1  UNL1       -0.2665
     34 C         145.1869  128.3846  157.8052 C.3     1  UNL1        0.0899
     35 C         145.7477  128.0724  159.1609 C.3     1  UNL1        0.0897
@<TRIPOS>BOND
     1    29    30    1
     2    30    31    1
     3    31    32    1
     4    32    33    1
     5    33    28    1
     6    28     1    1
     7     1     2   ar
     8     2     3   ar
     9     3     4   ar
    10     4     5   ar
    11     5     6   ar
    12     5     7    1
    13     7     8    1
    14     8     9    2
    15     9    13    1
    16    13    14   ar
    17    14    15   ar
    18    15    16   ar
    19    16    18    1
    20    18    19    3
    21    19    20    1
    22    20    21    1
    23    21    22    1
    24    22    23   ar
    25    23    24   ar
    26    24    25   ar
    27    25    26   ar
    28    26    27   ar
    29    16    17   ar
    30     9    10    1
    31    10    11    2
    32    11    12    1
    33    33    34    1
    34    34    35    1
    35    35    30    1
    36     6     1   ar
    37    12     8    1
    38    12     4    1
    39    17    13   ar
    40    27    22   ar
@<TRIPOS>MOLECULE
*****
 35 40 0 0 0
SMALL
GASTEIGER

@<TRIPOS>ATOM
      1 C         138.5032  139.7477  164.7717 C.ar    1  UNL1       -0.0065
      2 C         138.1651  141.2083  164.7262 C.ar    1  UNL1       -0.0032
      3 C         138.1147  141.9258  163.4099 C.ar    1  UNL1       -0.0026
      4 C         138.4023  141.1826  162.1391 C.ar    1  UNL1        0.0019
      5 C         138.7403  139.7219  162.1846 C.ar    1  UNL1       -0.0200
      6 C         138.7907  139.0044  163.5009 C.ar    1  UNL1       -0.0071
      7 C         138.9749  139.2565  160.7781 C.3     1  UNL1        0.0519
      8 C         138.7819  140.4295  159.8633 C.2     1  UNL1        0.0074
      9 C         138.8077  140.8667  158.4287 C.2     1  UNL1        0.0976
     10 N         138.4696  142.3274  158.3832 N.2     1  UNL1       -0.1526
     11 N         138.2350  142.7929  159.7897 N.2     1  UNL1       -0.1678
     12 C         138.4280  141.6199  160.7045 C.3     1  UNL1        0.1672
     13 C         139.1171  139.9961  157.2470 C.ar    1  UNL1        0.0265
     14 C         138.9236  140.3644  155.8058 C.ar    1  UNL1        0.0376
     15 S         139.3613  139.2003  154.9672 S.2     1  UNL1       -0.0780
     16 C         139.8253  138.1126  155.8901 C.ar    1  UNL1        0.0711
     17 C         139.6745  138.6045  157.2991 C.ar    1  UNL1        0.0168
     18 C         140.3485  136.7690  155.4766 C.1     1  UNL1       -0.0543
     19 C         140.8716  135.4253  155.0630 C.1     1  UNL1       -0.0388
     20 C         141.3947  134.0817  154.6495 C.3     1  UNL1        0.2815
     21 O         141.3070  132.9196  155.5939 O.3     1  UNL1       -0.4596
     22 C         142.5298  132.4566  156.3290 C.ar    1  UNL1        0.1591
     23 C         143.4110  133.4535  157.0215 C.ar    1  UNL1        0.0402
     24 C         144.6338  132.9906  157.7565 C.ar    1  UNL1        0.0238
     25 C         144.9754  131.5306  157.7991 C.ar    1  UNL1        0.0991
     26 N         144.0942  130.5337  157.1066 N.ar    1  UNL1       -0.2391
     27 C         142.8714  130.9967  156.3715 C.ar    1  UNL1        0.1357
     28 C         138.5536  139.0301  166.0880 C.3     1  UNL1        0.0992
     29 C         142.1539  141.0224  170.4547 C.3     1  UNL1        0.0897
     30 N         141.2539  140.5243  169.3631 N.3     1  UNL1       -0.2691
     31 C         139.7848  140.3612  169.6182 C.3     1  UNL1        0.0897
     32 C         138.8847  139.8631  168.5265 C.3     1  UNL1        0.0899
     33 N         139.4537  139.5282  167.1797 N.3     1  UNL1       -0.2665
     34 C         140.9229  139.6913  166.9245 C.3     1  UNL1        0.0899
     35 C         141.8229  140.1894  168.0162 C.3     1  UNL1        0.0897
@<TRIPOS>BOND
     1    29    30    1
     2    30    31    1
     3    31    32    1
     4    32    33    1
     5    33    28    1
     6    28     1    1
     7     1     2   ar
     8     2     3   ar
     9     3     4   ar
    10     4     5   ar
    11     5     6   ar
    12     5     7    1
    13     7     8    1
    14     8     9    2
    15     9    13    1
    16    13    14   ar
    17    14    15   ar
    18    15    16   ar
    19    16    18    1
    20    18    19    3
    21    19    20    1
    22    20    21    1
    23    21    22    1
    24    22    23   ar
    25    23    24   ar
    26    24    25   ar
    27    25    26   ar
    28    26    27   ar
    29    16    17   ar
    30     9    10    1
    31    10    11    2
    32    11    12    1
    33    33    34    1
    34    34    35    1
    35    35    30    1
    36     6     1   ar
    37    12     8    1
    38    12     4    1
    39    17    13   ar
    40    27    22   ar
@<TRIPOS>MOLECULE
*****
 35 40 0 0 0
SMALL
GASTEIGER

@<TRIPOS>ATOM
      1 C         140.7214  143.5365  164.4532 C.ar    1  UNL1       -0.0065
      2 C         140.4539  144.9401  163.9971 C.ar    1  UNL1       -0.0032
      3 C         140.8008  145.3527  162.5973 C.ar    1  UNL1       -0.0026
      4 C         141.4152  144.3617  161.6537 C.ar    1  UNL1        0.0019
      5 C         141.6826  142.9580  162.1099 C.ar    1  UNL1       -0.0200
      6 C         141.3357  142.5454  163.5096 C.ar    1  UNL1       -0.0071
      7 C         142.2931  142.2067  160.9641 C.3     1  UNL1        0.0519
      8 C         142.4029  143.1460  159.7998 C.2     1  UNL1        0.0074
      9 C         142.8481  143.2622  158.3721 C.2     1  UNL1        0.0976
     10 N         142.5806  144.6658  157.9159 N.2     1  UNL1       -0.1526
     11 N         141.9702  145.4172  159.0617 N.2     1  UNL1       -0.1678
     12 C         141.8603  144.4779  160.2259 C.3     1  UNL1        0.1672
     13 C         143.4543  142.1669  157.5456 C.ar    1  UNL1        0.0265
     14 C         144.6350  142.3034  156.6306 C.ar    1  UNL1        0.0376
     15 S         144.8966  140.9637  156.0086 S.2     1  UNL1       -0.0780
     16 C         143.8776  139.9993  156.5392 C.ar    1  UNL1        0.0711
     17 C         142.9862  140.7430  157.4892 C.ar    1  UNL1        0.0168
     18 C         143.7690  138.5464  156.1825 C.1     1  UNL1       -0.0543
     19 C         143.6605  137.0934  155.8259 C.1     1  UNL1       -0.0388
     20 C         143.5519  135.6406  155.4692 C.3     1  UNL1        0.2815
     21 O         142.7119  134.7232  156.3076 O.3     1  UNL1       -0.4596
     22 C         143.2496  133.3868  156.7259 C.ar    1  UNL1        0.1591
     23 C         144.5113  133.3053  157.5331 C.ar    1  UNL1        0.0402
     24 C         145.0490  131.9689  157.9514 C.ar    1  UNL1        0.0238
     25 C         144.3251  130.7141  157.5625 C.ar    1  UNL1        0.0991
     26 N         143.0634  130.7956  156.7553 N.ar    1  UNL1       -0.2391
     27 C         142.5257  132.1319  156.3370 C.ar    1  UNL1        0.1357
     28 C         140.3745  143.1238  165.8530 C.3     1  UNL1        0.0992
     29 C         137.6699  137.8608  166.8460 C.3     1  UNL1        0.0897
     30 N         138.3460  139.1765  166.5977 N.3     1  UNL1       -0.2691
     31 C         139.2927  139.7373  167.6171 C.3     1  UNL1        0.0897
     32 C         139.9689  141.0531  167.3689 C.3     1  UNL1        0.0899
     33 N         139.6983  141.8080  166.1013 N.3     1  UNL1       -0.2665
     34 C         138.7516  141.2471  165.0819 C.3     1  UNL1        0.0899
     35 C         138.0755  139.9314  165.3301 C.3     1  UNL1        0.0897
@<TRIPOS>BOND
     1    29    30    1
     2    30    31    1
     3    31    32    1
     4    32    33    1
     5    33    28    1
     6    28     1    1
     7     1     2   ar
     8     2     3   ar
     9     3     4   ar
    10     4     5   ar
    11     5     6   ar
    12     5     7    1
    13     7     8    1
    14     8     9    2
    15     9    13    1
    16    13    14   ar
    17    14    15   ar
    18    15    16   ar
    19    16    18    1
    20    18    19    3
    21    19    20    1
    22    20    21    1
    23    21    22    1
    24    22    23   ar
    25    23    24   ar
    26    24    25   ar
    27    25    26   ar
    28    26    27   ar
    29    16    17   ar
    30     9    10    1
    31    10    11    2
    32    11    12    1
    33    33    34    1
    34    34    35    1
    35    35    30    1
    36     6     1   ar
    37    12     8    1
    38    12     4    1
    39    17    13   ar
    40    27    22   ar
@<TRIPOS>MOLECULE
*****
 35 40 0 0 0
SMALL
GASTEIGER

@<TRIPOS>ATOM
      1 C         140.5982  146.0177  155.6046 C.ar    1  UNL1       -0.0065
      2 C         141.9279  145.4050  155.2784 C.ar    1  UNL1       -0.0032
      3 C         142.6852  144.6518  156.3315 C.ar    1  UNL1       -0.0026
      4 C         142.1128  144.5111  157.7108 C.ar    1  UNL1        0.0019
      5 C         140.7831  145.1238  158.0371 C.ar    1  UNL1       -0.0200
      6 C         140.0258  145.8771  156.9840 C.ar    1  UNL1       -0.0071
      7 C         140.4737  144.8223  159.4735 C.3     1  UNL1        0.0519
      8 C         141.6123  144.0232  160.0350 C.2     1  UNL1        0.0074
      9 C         142.1247  143.3431  161.2698 C.2     1  UNL1        0.0976
     10 N         143.4544  142.7304  160.9436 N.2     1  UNL1       -0.1526
     11 N         143.7638  143.0319  159.5072 N.2     1  UNL1       -0.1678
     12 C         142.6253  143.8309  158.9456 C.3     1  UNL1        0.1672
     13 C         141.4295  143.2856  162.5978 C.ar    1  UNL1        0.0265
     14 C         140.8854  144.4578  163.3596 C.ar    1  UNL1        0.0376
     15 S         140.2759  143.9425  164.6296 S.2     1  UNL1       -0.0780
     16 C         140.4433  142.4521  164.6528 C.ar    1  UNL1        0.0711
     17 C         141.1562  142.0461  163.3970 C.ar    1  UNL1        0.0168
     18 C         139.9792  141.5296  165.7407 C.1     1  UNL1       -0.0543
     19 C         139.5151  140.6070  166.8286 C.1     1  UNL1       -0.0388
     20 C         139.0510  139.6844  167.9165 C.3     1  UNL1        0.2815
     21 O         139.6099  139.8178  169.3021 O.3     1  UNL1       -0.4596
     22 C         140.8451  140.6359  169.5371 C.ar    1  UNL1        0.1591
     23 C         140.7521  142.1314  169.6064 C.ar    1  UNL1        0.0402
     24 C         141.9871  142.9496  169.8413 C.ar    1  UNL1        0.0238
     25 C         143.3152  142.2722  170.0070 C.ar    1  UNL1        0.0991
     26 N         143.4081  140.7767  169.9378 N.ar    1  UNL1       -0.2391
     27 C         142.1731  139.9586  169.7028 C.ar    1  UNL1        0.1357
     28 C         139.8409  146.7710  154.5515 C.3     1  UNL1        0.0992
     29 C         138.6672  152.6076  155.2974 C.3     1  UNL1        0.0897
     30 N         138.9607  151.1485  155.1109 N.3     1  UNL1       -0.2691
     31 C         138.3583  150.1375  156.0410 C.3     1  UNL1        0.0897
     32 C         138.6517  148.6783  155.8545 C.3     1  UNL1        0.0899
     33 N         139.5475  148.2301  154.7380 N.3     1  UNL1       -0.2665
     34 C         140.1499  149.2412  153.8079 C.3     1  UNL1        0.0899
     35 C         139.8565  150.7003  153.9944 C.3     1  UNL1        0.0897
@<TRIPOS>BOND
     1    29    30    1
     2    30    31    1
     3    31    32    1
     4    32    33    1
     5    33    28    1
     6    28     1    1
     7     1     2   ar
     8     2     3   ar
     9     3     4   ar
    10     4     5   ar
    11     5     6   ar
    12     5     7    1
    13     7     8    1
    14     8     9    2
    15     9    13    1
    16    13    14   ar
    17    14    15   ar
    18    15    16   ar
    19    16    18    1
    20    18    19    3
    21    19    20    1
    22    20    21    1
    23    21    22    1
    24    22    23   ar
    25    23    24   ar
    26    24    25   ar
    27    25    26   ar
    28    26    27   ar
    29    16    17   ar
    30     9    10    1
    31    10    11    2
    32    11    12    1
    33    33    34    1
    34    34    35    1
    35    35    30    1
    36     6     1   ar
    37    12     8    1
    38    12     4    1
    39    17    13   ar
    40    27    22   ar
