@<TRIPOS>MOLECULE
*****
 34 37 0 0 0
SMALL
GASTEIGER

@<TRIPOS>ATOM
      1 C         141.7806  140.7474  158.7129 C.ar    1  UNL1        0.0020
      2 C         141.8715  140.4202  157.2519 C.ar    1  UNL1       -0.0000
      3 C         142.3867  139.0813  156.8138 C.ar    1  UNL1        0.0031
      4 C         142.8110  138.0696  157.8368 C.ar    1  UNL1        0.0366
      5 C         142.7201  138.3968  159.2978 C.ar    1  UNL1        0.1346
      6 C         142.2049  139.7356  159.7359 C.ar    1  UNL1        0.0137
      7 C         142.1140  140.0629  161.1970 C.3     1  UNL1        0.0528
      8 C         142.5383  139.0512  162.2199 C.3     1  UNL1        0.1200
      9 C         143.0535  137.7122  161.7818 C.3     1  UNL1        0.2250
     10 O         143.1444  137.3851  160.3208 O.3     1  UNL1       -0.4740
     11 C         140.2351  144.7641  160.0274 C.ar    1  UNL1        0.3201
     12 N         139.2822  143.6236  159.8245 N.ar    1  UNL1       -0.1927
     13 C         139.7974  142.2847  159.3863 C.ar    1  UNL1        0.1051
     14 C         141.2654  142.0863  159.1511 C.ar    1  UNL1        0.0384
     15 C         142.2184  143.2268  159.3540 C.ar    1  UNL1        0.1051
     16 N         141.7032  144.5657  159.7921 N.ar    1  UNL1       -0.1927
     17 C         139.6821  146.4513  161.9240 C.3     1  UNL1        0.2559
     18 O         139.7200  146.1030  160.4655 O.3     1  UNL1       -0.4426
     19 N         142.4474  139.3783  163.6810 N.am    1  UNL1       -0.2986
     20 C         141.1830  139.0937  164.4361 C.2     1  UNL1        0.2474
     21 O         140.0094  138.4820  163.7301 O.2     1  UNL1       -0.2701
     22 H         143.2177  139.7799  164.1443 H       1  UNL1        0.1498
     23 C         141.0921  139.4209  165.8972 C.ar    1  UNL1        0.0727
     24 C         142.3419  139.5406  166.7180 C.ar    1  UNL1        0.0109
     25 C         142.2511  139.8677  168.1791 C.ar    1  UNL1        0.0579
     26 C         140.9106  140.0753  168.8192 C.ar    1  UNL1        0.2251
     27 N         139.6608  139.9557  167.9984 N.ar    1  UNL1       -0.2100
     28 C         139.7516  139.6285  166.5373 C.ar    1  UNL1        0.1065
     29 O         140.8197  140.4025  170.2803 O.3     1  UNL1       -0.4509
     30 C         141.2358  141.7568  170.7729 C.3     1  UNL1        0.3095
     31 C         140.7054  142.9923  170.1079 C.3     1  UNL1        0.4381
     32 F         140.1749  144.2278  169.4429 F       1  UNL1       -0.1663
     33 F         142.1077  143.4373  169.8160 F       1  UNL1       -0.1663
     34 F         139.3030  142.5473  170.3998 F       1  UNL1       -0.1663
@<TRIPOS>BOND
     1    17    18    1
     2    18    11    1
     3    11    12   ar
     4    12    13   ar
     5    13    14   ar
     6    14     1    1
     7     1     2   ar
     8     2     3   ar
     9     3     4   ar
    10     4     5   ar
    11     5     6   ar
    12     6     7    1
    13     7     8    1
    14     8    19    1
    15    19    20   am
    16    20    21    2
    17    20    23    1
    18    23    24   ar
    19    24    25   ar
    20    25    26   ar
    21    26    29    1
    22    29    30    1
    23    30    31    1
    24    31    32    1
    25    31    33    1
    26    31    34    1
    27    26    27   ar
    28    27    28   ar
    29     8     9    1
    30     9    10    1
    31    14    15   ar
    32    15    16   ar
    33    16    11   ar
    34     6     1   ar
    35    28    23   ar
    36    10     5    1
    37    19    22    1
@<TRIPOS>MOLECULE
*****
 34 37 0 0 0
SMALL
GASTEIGER

@<TRIPOS>ATOM
      1 C         138.9570  140.3121  164.3371 C.ar    1  UNL1        0.0020
      2 C         138.0720  139.8780  165.4677 C.ar    1  UNL1       -0.0000
      3 C         138.1968  138.4923  166.0282 C.ar    1  UNL1        0.0031
      4 C         139.2065  137.5407  165.4581 C.ar    1  UNL1        0.0366
      5 C         140.0915  137.9749  164.3275 C.ar    1  UNL1        0.1346
      6 C         139.9667  139.3606  163.7670 C.ar    1  UNL1        0.0137
      7 C         140.8517  139.7949  162.6364 C.3     1  UNL1        0.0528
      8 C         141.8615  138.8433  162.0663 C.3     1  UNL1        0.1200
      9 C         141.9862  137.4576  162.6268 C.3     1  UNL1        0.2250
     10 O         141.1013  137.0234  163.7574 O.3     1  UNL1       -0.4740
     11 C         138.5827  144.4694  162.6554 C.ar    1  UNL1        0.3201
     12 N         139.5535  144.1939  163.7653 N.ar    1  UNL1       -0.1927
     13 C         139.6782  142.8081  164.3258 C.ar    1  UNL1        0.1051
     14 C         138.8322  141.6979  163.7765 C.ar    1  UNL1        0.0384
     15 C         137.8614  141.9734  162.6667 C.ar    1  UNL1        0.1051
     16 N         137.7367  143.3591  162.1062 N.ar    1  UNL1       -0.1927
     17 C         139.6861  146.6096  161.6800 C.3     1  UNL1        0.2559
     18 O         138.4579  145.8550  162.0949 O.3     1  UNL1       -0.4426
     19 N         142.7464  139.2775  160.9357 N.am    1  UNL1       -0.2986
     20 C         142.3202  139.0428  159.5168 C.2     1  UNL1        0.2474
     21 O         141.0089  138.3739  159.2285 O.2     1  UNL1       -0.2701
     22 H         143.6071  139.7165  161.1249 H       1  UNL1        0.1498
     23 C         143.2052  139.4770  158.3862 C.ar    1  UNL1        0.0727
     24 C         144.0407  140.7155  158.5208 C.ar    1  UNL1        0.0109
     25 C         144.9257  141.1498  157.3903 C.ar    1  UNL1        0.0579
     26 C         144.9752  140.3455  156.1251 C.ar    1  UNL1        0.2251
     27 N         144.1398  139.1070  155.9905 N.ar    1  UNL1       -0.2100
     28 C         143.2547  138.6728  157.1210 C.ar    1  UNL1        0.1065
     29 O         145.8603  140.7797  154.9945 O.3     1  UNL1       -0.4509
     30 C         146.7139  142.0048  155.1382 C.3     1  UNL1        0.3095
     31 C         148.1792  141.8682  155.4277 C.3     1  UNL1        0.4381
     32 F         149.6446  141.7315  155.7173 F       1  UNL1       -0.1663
     33 F         148.3992  141.3120  154.0522 F       1  UNL1       -0.1663
     34 F         147.9593  142.4244  156.8033 F       1  UNL1       -0.1663
@<TRIPOS>BOND
     1    17    18    1
     2    18    11    1
     3    11    12   ar
     4    12    13   ar
     5    13    14   ar
     6    14     1    1
     7     1     2   ar
     8     2     3   ar
     9     3     4   ar
    10     4     5   ar
    11     5     6   ar
    12     6     7    1
    13     7     8    1
    14     8    19    1
    15    19    20   am
    16    20    21    2
    17    20    23    1
    18    23    24   ar
    19    24    25   ar
    20    25    26   ar
    21    26    29    1
    22    29    30    1
    23    30    31    1
    24    31    32    1
    25    31    33    1
    26    31    34    1
    27    26    27   ar
    28    27    28   ar
    29     8     9    1
    30     9    10    1
    31    14    15   ar
    32    15    16   ar
    33    16    11   ar
    34     6     1   ar
    35    28    23   ar
    36    10     5    1
    37    19    22    1
@<TRIPOS>MOLECULE
*****
 34 37 0 0 0
SMALL
GASTEIGER

@<TRIPOS>ATOM
      1 C         141.6026  140.5093  158.7244 C.ar    1  UNL1        0.0020
      2 C         141.3849  140.0268  157.3210 C.ar    1  UNL1       -0.0000
      3 C         141.8597  138.6633  156.9146 C.ar    1  UNL1        0.0031
      4 C         142.5522  137.7822  157.9116 C.ar    1  UNL1        0.0366
      5 C         142.7700  138.2647  159.3151 C.ar    1  UNL1        0.1346
      6 C         142.2952  139.6283  159.7215 C.ar    1  UNL1        0.0137
      7 C         142.5129  140.1109  161.1250 C.3     1  UNL1        0.0528
      8 C         143.2055  139.2298  162.1220 C.3     1  UNL1        0.1200
      9 C         143.6803  137.8662  161.7156 C.3     1  UNL1        0.2250
     10 O         143.4625  137.3837  160.3121 O.3     1  UNL1       -0.4740
     11 C         140.1781  144.6001  159.9438 C.ar    1  UNL1        0.3201
     12 N         141.5854  144.4090  159.4610 N.ar    1  UNL1       -0.1927
     13 C         142.0602  143.0454  159.0546 C.ar    1  UNL1        0.1051
     14 C         141.1278  141.8730  159.1309 C.ar    1  UNL1        0.0384
     15 C         139.7205  142.0640  159.6137 C.ar    1  UNL1        0.1051
     16 N         139.2457  143.4276  160.0201 N.ar    1  UNL1       -0.1927
     17 C         139.6831  146.3496  161.7996 C.3     1  UNL1        0.2559
     18 O         139.7033  145.9636  160.3503 O.3     1  UNL1       -0.4426
     19 N         143.4232  139.7123  163.5255 N.am    1  UNL1       -0.2986
     20 C         142.2993  139.6649  164.5178 C.2     1  UNL1        0.2474
     21 O         140.9576  139.1350  164.1066 O.2     1  UNL1       -0.2701
     22 H         144.3038  140.0601  163.7954 H       1  UNL1        0.1498
     23 C         142.5171  140.1475  165.9213 C.ar    1  UNL1        0.0727
     24 C         142.5721  141.6187  166.2085 C.ar    1  UNL1        0.0109
     25 C         142.7898  142.1013  167.6119 C.ar    1  UNL1        0.0579
     26 C         142.9527  141.1126  168.7281 C.ar    1  UNL1        0.2251
     27 N         142.8977  139.6414  168.4409 N.ar    1  UNL1       -0.2100
     28 C         142.6799  139.1588  167.0375 C.ar    1  UNL1        0.1065
     29 O         143.1705  141.5952  170.1316 O.3     1  UNL1       -0.4509
     30 C         142.2442  142.6140  170.7266 C.3     1  UNL1        0.3095
     31 C         140.7621  142.4805  170.5387 C.3     1  UNL1        0.4381
     32 F         139.2799  142.3471  170.3507 F       1  UNL1       -0.1663
     33 F         140.7445  143.7653  169.7648 F       1  UNL1       -0.1663
     34 F         140.7796  141.1957  171.3126 F       1  UNL1       -0.1663
@<TRIPOS>BOND
     1    17    18    1
     2    18    11    1
     3    11    12   ar
     4    12    13   ar
     5    13    14   ar
     6    14     1    1
     7     1     2   ar
     8     2     3   ar
     9     3     4   ar
    10     4     5   ar
    11     5     6   ar
    12     6     7    1
    13     7     8    1
    14     8    19    1
    15    19    20   am
    16    20    21    2
    17    20    23    1
    18    23    24   ar
    19    24    25   ar
    20    25    26   ar
    21    26    29    1
    22    29    30    1
    23    30    31    1
    24    31    32    1
    25    31    33    1
    26    31    34    1
    27    26    27   ar
    28    27    28   ar
    29     8     9    1
    30     9    10    1
    31    14    15   ar
    32    15    16   ar
    33    16    11   ar
    34     6     1   ar
    35    28    23   ar
    36    10     5    1
    37    19    22    1
@<TRIPOS>MOLECULE
*****
 34 37 0 0 0
SMALL
GASTEIGER

@<TRIPOS>ATOM
      1 C         142.1199  142.1277  164.5941 C.ar    1  UNL1        0.0020
      2 C         143.2698  142.4221  165.5112 C.ar    1  UNL1       -0.0000
      3 C         144.2551  143.4963  165.1576 C.ar    1  UNL1        0.0031
      4 C         144.0905  144.2762  163.8869 C.ar    1  UNL1        0.0366
      5 C         142.9407  143.9818  162.9698 C.ar    1  UNL1        0.1346
      6 C         141.9554  142.9075  163.3234 C.ar    1  UNL1        0.0137
      7 C         140.8054  142.6131  162.4063 C.3     1  UNL1        0.0528
      8 C         140.6408  143.3930  161.1356 C.3     1  UNL1        0.1200
      9 C         141.6262  144.4673  160.7820 C.3     1  UNL1        0.2250
     10 O         142.7761  144.7617  161.6991 O.3     1  UNL1       -0.4740
     11 C         139.1638  138.9049  165.6550 C.ar    1  UNL1        0.3201
     12 N         140.4070  138.5599  164.8899 N.ar    1  UNL1       -0.1927
     13 C         141.3924  139.6342  164.5363 C.ar    1  UNL1        0.1051
     14 C         141.1345  141.0534  164.9478 C.ar    1  UNL1        0.0384
     15 C         139.8913  141.3984  165.7129 C.ar    1  UNL1        0.1051
     16 N         138.9059  140.3241  166.0665 N.ar    1  UNL1       -0.1927
     17 C         137.2621  138.0104  167.1825 C.3     1  UNL1        0.2559
     18 O         138.1784  137.8307  166.0086 O.3     1  UNL1       -0.4426
     19 N         139.4910  143.0986  160.2185 N.am    1  UNL1       -0.2986
     20 C         139.7064  142.2679  158.9883 C.2     1  UNL1        0.2474
     21 O         141.0718  141.7315  158.6752 O.2     1  UNL1       -0.2701
     22 H         138.5948  143.4506  160.4241 H       1  UNL1        0.1498
     23 C         138.5564  141.9735  158.0712 C.ar    1  UNL1        0.0727
     24 C         138.1542  142.9734  157.0280 C.ar    1  UNL1        0.0109
     25 C         137.0043  142.6791  156.1109 C.ar    1  UNL1        0.0579
     26 C         136.2567  141.3849  156.2371 C.ar    1  UNL1        0.2251
     27 N         136.6589  140.3850  157.2803 N.ar    1  UNL1       -0.2100
     28 C         137.8088  140.6793  158.1974 C.ar    1  UNL1        0.1065
     29 O         135.1067  141.0905  155.3200 O.3     1  UNL1       -0.4509
     30 C         134.2296  139.9006  155.5750 C.3     1  UNL1        0.3095
     31 C         133.1241  139.9865  156.5851 C.3     1  UNL1        0.4381
     32 F         132.0186  140.0723  157.5952 F       1  UNL1       -0.1663
     33 F         132.7867  141.3647  156.0987 F       1  UNL1       -0.1663
     34 F         133.4615  138.6083  157.0715 F       1  UNL1       -0.1663
@<TRIPOS>BOND
     1    17    18    1
     2    18    11    1
     3    11    12   ar
     4    12    13   ar
     5    13    14   ar
     6    14     1    1
     7     1     2   ar
     8     2     3   ar
     9     3     4   ar
    10     4     5   ar
    11     5     6   ar
    12     6     7    1
    13     7     8    1
    14     8    19    1
    15    19    20   am
    16    20    21    2
    17    20    23    1
    18    23    24   ar
    19    24    25   ar
    20    25    26   ar
    21    26    29    1
    22    29    30    1
    23    30    31    1
    24    31    32    1
    25    31    33    1
    26    31    34    1
    27    26    27   ar
    28    27    28   ar
    29     8     9    1
    30     9    10    1
    31    14    15   ar
    32    15    16   ar
    33    16    11   ar
    34     6     1   ar
    35    28    23   ar
    36    10     5    1
    37    19    22    1
@<TRIPOS>MOLECULE
*****
 34 37 0 0 0
SMALL
GASTEIGER

@<TRIPOS>ATOM
      1 C         140.9093  142.1506  166.5562 C.ar    1  UNL1        0.0020
      2 C         140.7334  142.5407  167.9938 C.ar    1  UNL1       -0.0000
      3 C         141.2995  141.6753  169.0804 C.ar    1  UNL1        0.0031
      4 C         142.0415  140.4199  168.7293 C.ar    1  UNL1        0.0366
      5 C         142.2174  140.0298  167.2917 C.ar    1  UNL1        0.1346
      6 C         141.6514  140.8951  166.2051 C.ar    1  UNL1        0.0137
      7 C         141.8273  140.5050  164.7674 C.3     1  UNL1        0.0528
      8 C         142.5693  139.2495  164.4164 C.3     1  UNL1        0.1200
      9 C         143.1354  138.3842  165.5030 C.3     1  UNL1        0.2250
     10 O         142.9594  138.7743  166.9407 O.3     1  UNL1       -0.4740
     11 C         139.2111  144.7466  163.2963 C.ar    1  UNL1        0.3201
     12 N         140.6605  144.8586  163.6657 N.ar    1  UNL1       -0.1927
     13 C         141.2266  143.9933  164.7523 C.ar    1  UNL1        0.1051
     14 C         140.3433  143.0159  165.4695 C.ar    1  UNL1        0.0384
     15 C         138.8938  142.9039  165.1001 C.ar    1  UNL1        0.1051
     16 N         138.3277  143.7692  164.0135 N.ar    1  UNL1       -0.1927
     17 C         139.5615  146.4249  161.3443 C.3     1  UNL1        0.2559
     18 O         138.6449  145.6119  162.2097 O.3     1  UNL1       -0.4426
     19 N         142.7452  138.8594  162.9787 N.am    1  UNL1       -0.2986
     20 C         141.5480  138.7334  162.0839 C.2     1  UNL1        0.2474
     21 O         140.1748  138.9975  162.6267 O.2     1  UNL1       -0.2701
     22 H         143.6465  138.6861  162.6225 H       1  UNL1        0.1498
     23 C         141.7240  138.3433  160.6462 C.ar    1  UNL1        0.0727
     24 C         140.6652  138.6870  159.6408 C.ar    1  UNL1        0.0109
     25 C         140.8411  138.2969  158.2032 C.ar    1  UNL1        0.0579
     26 C         142.0758  137.5631  157.7709 C.ar    1  UNL1        0.2251
     27 N         143.1346  137.2193  158.7763 N.ar    1  UNL1       -0.2100
     28 C         142.9587  137.6094  160.2139 C.ar    1  UNL1        0.1065
     29 O         142.2518  137.1730  156.3332 O.3     1  UNL1       -0.4509
     30 C         143.1558  136.0320  155.9710 C.3     1  UNL1        0.3095
     31 C         142.7465  134.6229  156.2822 C.3     1  UNL1        0.4381
     32 F         142.3373  133.2138  156.5933 F       1  UNL1       -0.1663
     33 F         141.3516  134.9264  155.8217 F       1  UNL1       -0.1663
     34 F         144.1414  134.3195  156.7426 F       1  UNL1       -0.1663
@<TRIPOS>BOND
     1    17    18    1
     2    18    11    1
     3    11    12   ar
     4    12    13   ar
     5    13    14   ar
     6    14     1    1
     7     1     2   ar
     8     2     3   ar
     9     3     4   ar
    10     4     5   ar
    11     5     6   ar
    12     6     7    1
    13     7     8    1
    14     8    19    1
    15    19    20   am
    16    20    21    2
    17    20    23    1
    18    23    24   ar
    19    24    25   ar
    20    25    26   ar
    21    26    29    1
    22    29    30    1
    23    30    31    1
    24    31    32    1
    25    31    33    1
    26    31    34    1
    27    26    27   ar
    28    27    28   ar
    29     8     9    1
    30     9    10    1
    31    14    15   ar
    32    15    16   ar
    33    16    11   ar
    34     6     1   ar
    35    28    23   ar
    36    10     5    1
    37    19    22    1
@<TRIPOS>MOLECULE
*****
 34 37 0 0 0
SMALL
GASTEIGER

@<TRIPOS>ATOM
      1 C         135.2541  141.6035  154.3354 C.ar    1  UNL1        0.0020
      2 C         135.0848  141.7847  152.8561 C.ar    1  UNL1       -0.0000
      3 C         136.1115  142.5462  152.0714 C.ar    1  UNL1        0.0031
      4 C         137.3076  143.1266  152.7660 C.ar    1  UNL1        0.0366
      5 C         137.4770  142.9454  154.2453 C.ar    1  UNL1        0.1346
      6 C         136.4503  142.1839  155.0300 C.ar    1  UNL1        0.0137
      7 C         136.6196  142.0026  156.5094 C.3     1  UNL1        0.0528
      8 C         137.8157  142.5830  157.2040 C.3     1  UNL1        0.1200
      9 C         138.8425  143.3446  156.4192 C.3     1  UNL1        0.2250
     10 O         138.6731  143.5258  154.9399 O.3     1  UNL1       -0.4740
     11 C         132.1740  139.3187  156.6897 C.ar    1  UNL1        0.3201
     12 N         131.8467  140.6785  156.1477 N.ar    1  UNL1       -0.1927
     13 C         132.8735  141.4401  155.3629 C.ar    1  UNL1        0.1051
     14 C         134.2274  140.8419  155.1202 C.ar    1  UNL1        0.0384
     15 C         134.5546  139.4821  155.6622 C.ar    1  UNL1        0.1051
     16 N         133.5280  138.7205  156.4470 N.ar    1  UNL1       -0.1927
     17 C         129.8815  138.1023  156.8106 C.3     1  UNL1        0.2559
     18 O         131.1473  138.5571  157.4745 O.3     1  UNL1       -0.4426
     19 N         137.9851  142.4018  158.6833 N.am    1  UNL1       -0.2986
     20 C         138.1314  141.0241  159.2583 C.2     1  UNL1        0.2474
     21 O         138.1084  139.8276  158.3540 O.2     1  UNL1       -0.2701
     22 H         138.0003  143.1871  159.2769 H       1  UNL1        0.1498
     23 C         138.3008  140.8430  160.7377 C.ar    1  UNL1        0.0727
     24 C         138.2508  139.4682  161.3355 C.ar    1  UNL1        0.0109
     25 C         138.4202  139.2870  162.8149 C.ar    1  UNL1        0.0579
     26 C         138.6396  140.4806  163.6964 C.ar    1  UNL1        0.2251
     27 N         138.6896  141.8554  163.0985 N.ar    1  UNL1       -0.2100
     28 C         138.5202  142.0366  161.6192 C.ar    1  UNL1        0.1065
     29 O         138.8090  140.2994  165.1758 O.3     1  UNL1       -0.4509
     30 C         139.1973  138.9598  165.7277 C.3     1  UNL1        0.3095
     31 C         138.1609  138.0817  166.3638 C.3     1  UNL1        0.4381
     32 F         137.1245  137.2036  167.0000 F       1  UNL1       -0.1663
     33 F         138.4958  136.9856  165.3962 F       1  UNL1       -0.1663
     34 F         137.8261  139.1778  167.3315 F       1  UNL1       -0.1663
@<TRIPOS>BOND
     1    17    18    1
     2    18    11    1
     3    11    12   ar
     4    12    13   ar
     5    13    14   ar
     6    14     1    1
     7     1     2   ar
     8     2     3   ar
     9     3     4   ar
    10     4     5   ar
    11     5     6   ar
    12     6     7    1
    13     7     8    1
    14     8    19    1
    15    19    20   am
    16    20    21    2
    17    20    23    1
    18    23    24   ar
    19    24    25   ar
    20    25    26   ar
    21    26    29    1
    22    29    30    1
    23    30    31    1
    24    31    32    1
    25    31    33    1
    26    31    34    1
    27    26    27   ar
    28    27    28   ar
    29     8     9    1
    30     9    10    1
    31    14    15   ar
    32    15    16   ar
    33    16    11   ar
    34     6     1   ar
    35    28    23   ar
    36    10     5    1
    37    19    22    1
@<TRIPOS>MOLECULE
*****
 34 37 0 0 0
SMALL
GASTEIGER

@<TRIPOS>ATOM
      1 C         139.9122  142.2559  164.0694 C.ar    1  UNL1        0.0020
      2 C         139.1843  143.1066  165.0675 C.ar    1  UNL1       -0.0000
      3 C         138.0830  144.0186  164.6141 C.ar    1  UNL1        0.0031
      4 C         137.7097  144.0797  163.1626 C.ar    1  UNL1        0.0366
      5 C         138.4377  143.2289  162.1645 C.ar    1  UNL1        0.1346
      6 C         139.5389  142.3170  162.6179 C.ar    1  UNL1        0.0137
      7 C         140.2669  141.4662  161.6198 C.3     1  UNL1        0.0528
      8 C         139.8936  141.5273  160.1682 C.3     1  UNL1        0.1200
      9 C         138.7923  142.4393  159.7148 C.3     1  UNL1        0.2250
     10 O         138.0644  143.2901  160.7129 O.3     1  UNL1       -0.4740
     11 C         143.2160  139.5199  165.4296 C.ar    1  UNL1        0.3201
     12 N         143.5135  140.9558  165.1138 N.ar    1  UNL1       -0.1927
     13 C         142.4122  141.8678  164.6604 C.ar    1  UNL1        0.1051
     14 C         141.0135  141.3439  164.5228 C.ar    1  UNL1        0.0384
     15 C         140.7159  139.9080  164.8386 C.ar    1  UNL1        0.1051
     16 N         141.8171  138.9960  165.2919 N.ar    1  UNL1       -0.1927
     17 C         144.0655  137.6155  166.9791 C.3     1  UNL1        0.2559
     18 O         144.3172  138.6079  165.8829 O.3     1  UNL1       -0.4426
     19 N         140.6215  140.6765  159.1701 N.am    1  UNL1       -0.2986
     20 C         140.2399  139.2369  158.9918 C.2     1  UNL1        0.2474
     21 O         139.1303  138.6481  159.8115 O.2     1  UNL1       -0.2701
     22 H         141.3498  141.0630  158.6321 H       1  UNL1        0.1498
     23 C         140.9678  138.3861  157.9936 C.ar    1  UNL1        0.0727
     24 C         140.1972  137.5967  156.9773 C.ar    1  UNL1        0.0109
     25 C         140.9251  136.7459  155.9792 C.ar    1  UNL1        0.0579
     26 C         142.4237  136.6846  155.9973 C.ar    1  UNL1        0.2251
     27 N         143.1944  137.4741  157.0136 N.ar    1  UNL1       -0.2100
     28 C         142.4665  138.3248  158.0117 C.ar    1  UNL1        0.1065
     29 O         143.1517  135.8338  154.9992 O.3     1  UNL1       -0.4509
     30 C         143.4619  134.4016  155.3191 C.3     1  UNL1        0.3095
     31 C         142.3467  133.4147  155.4988 C.3     1  UNL1        0.4381
     32 F         141.2314  132.4278  155.6784 F       1  UNL1       -0.1663
     33 F         142.5272  133.4814  156.9863 F       1  UNL1       -0.1663
     34 F         142.1661  133.3479  154.0112 F       1  UNL1       -0.1663
@<TRIPOS>BOND
     1    17    18    1
     2    18    11    1
     3    11    12   ar
     4    12    13   ar
     5    13    14   ar
     6    14     1    1
     7     1     2   ar
     8     2     3   ar
     9     3     4   ar
    10     4     5   ar
    11     5     6   ar
    12     6     7    1
    13     7     8    1
    14     8    19    1
    15    19    20   am
    16    20    21    2
    17    20    23    1
    18    23    24   ar
    19    24    25   ar
    20    25    26   ar
    21    26    29    1
    22    29    30    1
    23    30    31    1
    24    31    32    1
    25    31    33    1
    26    31    34    1
    27    26    27   ar
    28    27    28   ar
    29     8     9    1
    30     9    10    1
    31    14    15   ar
    32    15    16   ar
    33    16    11   ar
    34     6     1   ar
    35    28    23   ar
    36    10     5    1
    37    19    22    1
@<TRIPOS>MOLECULE
*****
 34 37 0 0 0
SMALL
GASTEIGER

@<TRIPOS>ATOM
      1 C         141.1557  143.0324  158.1749 C.ar    1  UNL1        0.0020
      2 C         141.0612  143.7254  156.8480 C.ar    1  UNL1       -0.0000
      3 C         140.5780  145.1435  156.7752 C.ar    1  UNL1        0.0031
      4 C         140.1892  145.8687  158.0294 C.ar    1  UNL1        0.0366
      5 C         140.2836  145.1757  159.3563 C.ar    1  UNL1        0.1346
      6 C         140.7669  143.7576  159.4291 C.ar    1  UNL1        0.0137
      7 C         140.8613  143.0645  160.7561 C.3     1  UNL1        0.0528
      8 C         140.4725  143.7897  162.0103 C.3     1  UNL1        0.1200
      9 C         139.9893  145.2079  161.9375 C.3     1  UNL1        0.2250
     10 O         139.8948  145.9009  160.6105 O.3     1  UNL1       -0.4740
     11 C         142.6055  138.7779  158.3934 C.ar    1  UNL1        0.3201
     12 N         141.1390  139.0647  158.2626 N.ar    1  UNL1       -0.1927
     13 C         140.6557  140.4829  158.1898 C.ar    1  UNL1        0.1051
     14 C         141.6389  141.6142  158.2477 C.ar    1  UNL1        0.0384
     15 C         143.1055  141.3274  158.3785 C.ar    1  UNL1        0.1051
     16 N         143.5887  139.9093  158.4513 N.ar    1  UNL1       -0.1927
     17 C         142.9444  136.4563  157.2776 C.3     1  UNL1        0.2559
     18 O         143.0888  137.3598  158.4662 O.3     1  UNL1       -0.4426
     19 N         140.5670  143.0967  163.3372 N.am    1  UNL1       -0.2986
     20 C         139.3669  142.3998  163.9065 C.2     1  UNL1        0.2474
     21 O         138.0724  142.3957  163.1488 O.2     1  UNL1       -0.2701
     22 H         141.4166  143.0994  163.8346 H       1  UNL1        0.1498
     23 C         139.4614  141.7068  165.2335 C.ar    1  UNL1        0.0727
     24 C         138.7765  140.3886  165.4417 C.ar    1  UNL1        0.0109
     25 C         138.8709  139.6956  166.7686 C.ar    1  UNL1        0.0579
     26 C         139.6503  140.3208  167.8874 C.ar    1  UNL1        0.2251
     27 N         140.3352  141.6389  167.6792 N.ar    1  UNL1       -0.2100
     28 C         140.2408  142.3319  166.3523 C.ar    1  UNL1        0.1065
     29 O         139.7448  139.6278  169.2144 O.3     1  UNL1       -0.4509
     30 C         140.4076  140.3127  170.3726 C.3     1  UNL1        0.3095
     31 C         141.8958  140.2306  170.5409 C.3     1  UNL1        0.4381
     32 F         143.3841  140.1484  170.7091 F       1  UNL1       -0.1663
     33 F         141.9121  141.6300  171.0805 F       1  UNL1       -0.1663
     34 F         141.8796  138.8311  170.0013 F       1  UNL1       -0.1663
@<TRIPOS>BOND
     1    17    18    1
     2    18    11    1
     3    11    12   ar
     4    12    13   ar
     5    13    14   ar
     6    14     1    1
     7     1     2   ar
     8     2     3   ar
     9     3     4   ar
    10     4     5   ar
    11     5     6   ar
    12     6     7    1
    13     7     8    1
    14     8    19    1
    15    19    20   am
    16    20    21    2
    17    20    23    1
    18    23    24   ar
    19    24    25   ar
    20    25    26   ar
    21    26    29    1
    22    29    30    1
    23    30    31    1
    24    31    32    1
    25    31    33    1
    26    31    34    1
    27    26    27   ar
    28    27    28   ar
    29     8     9    1
    30     9    10    1
    31    14    15   ar
    32    15    16   ar
    33    16    11   ar
    34     6     1   ar
    35    28    23   ar
    36    10     5    1
    37    19    22    1
@<TRIPOS>MOLECULE
*****
 34 37 0 0 0
SMALL
GASTEIGER

@<TRIPOS>ATOM
      1 C         141.2239  142.9221  157.6616 C.ar    1  UNL1        0.0020
      2 C         141.2117  143.5506  156.2997 C.ar    1  UNL1       -0.0000
      3 C         140.7609  144.9716  156.1336 C.ar    1  UNL1        0.0031
      4 C         140.3224  145.7640  157.3293 C.ar    1  UNL1        0.0366
      5 C         140.3347  145.1355  158.6912 C.ar    1  UNL1        0.1346
      6 C         140.7855  143.7145  158.8573 C.ar    1  UNL1        0.0137
      7 C         140.7978  143.0859  160.2192 C.3     1  UNL1        0.0528
      8 C         140.3593  143.8783  161.4150 C.3     1  UNL1        0.1200
      9 C         139.9085  145.2994  161.2488 C.3     1  UNL1        0.2250
     10 O         139.8963  145.9279  159.8869 O.3     1  UNL1       -0.4740
     11 C         142.5763  138.6591  158.1601 C.ar    1  UNL1        0.3201
     12 N         141.1191  138.9678  157.9835 N.ar    1  UNL1       -0.1927
     13 C         140.6683  140.3889  157.8173 C.ar    1  UNL1        0.1051
     14 C         141.6747  141.5010  157.8278 C.ar    1  UNL1        0.0384
     15 C         143.1319  141.1923  158.0043 C.ar    1  UNL1        0.1051
     16 N         143.5827  139.7713  158.1705 N.ar    1  UNL1       -0.1927
     17 C         142.9195  136.2781  157.1788 C.3     1  UNL1        0.2559
     18 O         143.0271  137.2381  158.3263 O.3     1  UNL1       -0.4426
     19 N         140.3716  143.2498  162.7769 N.am    1  UNL1       -0.2986
     20 C         141.5699  143.4080  163.6651 C.2     1  UNL1        0.2474
     21 O         142.7559  144.1948  163.1915 O.2     1  UNL1       -0.2701
     22 H         139.5932  142.7334  163.0877 H       1  UNL1        0.1498
     23 C         141.5821  142.7794  165.0271 C.ar    1  UNL1        0.0727
     24 C         142.8721  142.6491  165.7814 C.ar    1  UNL1        0.0109
     25 C         142.8844  142.0206  167.1432 C.ar    1  UNL1        0.0579
     26 C         141.6067  141.5224  167.7508 C.ar    1  UNL1        0.2251
     27 N         140.3167  141.6527  166.9965 N.ar    1  UNL1       -0.2100
     28 C         140.3044  142.2812  165.6347 C.ar    1  UNL1        0.1065
     29 O         141.6189  140.8938  169.1128 O.3     1  UNL1       -0.4509
     30 C         141.3866  141.7381  170.3306 C.3     1  UNL1        0.3095
     31 C         140.9040  143.1507  170.1829 C.3     1  UNL1        0.4381
     32 F         140.4214  144.5632  170.0353 F       1  UNL1       -0.1663
     33 F         142.3224  143.6379  170.2081 F       1  UNL1       -0.1663
     34 F         139.4856  142.6634  170.1578 F       1  UNL1       -0.1663
@<TRIPOS>BOND
     1    17    18    1
     2    18    11    1
     3    11    12   ar
     4    12    13   ar
     5    13    14   ar
     6    14     1    1
     7     1     2   ar
     8     2     3   ar
     9     3     4   ar
    10     4     5   ar
    11     5     6   ar
    12     6     7    1
    13     7     8    1
    14     8    19    1
    15    19    20   am
    16    20    21    2
    17    20    23    1
    18    23    24   ar
    19    24    25   ar
    20    25    26   ar
    21    26    29    1
    22    29    30    1
    23    30    31    1
    24    31    32    1
    25    31    33    1
    26    31    34    1
    27    26    27   ar
    28    27    28   ar
    29     8     9    1
    30     9    10    1
    31    14    15   ar
    32    15    16   ar
    33    16    11   ar
    34     6     1   ar
    35    28    23   ar
    36    10     5    1
    37    19    22    1
