@<TRIPOS>MOLECULE
*****
 16 17 0 0 0
SMALL
GASTEIGER

@<TRIPOS>ATOM
      1 C         140.1903  141.9115  165.9559 C.3     1  UNL1        0.0344
      2 C         140.7083  143.0295  165.1004 C.ar    1  UNL1        0.0185
      3 C         139.9565  144.2708  164.7214 C.ar    1  UNL1        0.1769
      4 O         140.8527  145.1109  163.8606 O.2     1  UNL1       -0.4509
      5 C         142.1584  144.3887  163.7075 C.ar    1  UNL1        0.1451
      6 C         143.4171  144.7362  162.9694 C.ar    1  UNL1        0.0380
      7 C         144.5866  143.7974  162.9975 C.ar    1  UNL1        0.0098
      8 C         144.4974  142.5110  163.7638 C.ar    1  UNL1        0.0348
      9 BR        145.6669  141.5721  163.7920 Br      1  UNL1       -0.0490
     10 C         143.2387  142.1634  164.5019 C.ar    1  UNL1        0.0095
     11 C         142.0692  143.1023  164.4738 C.ar    1  UNL1        0.0341
     12 C         138.5545  144.6122  165.1313 C.2     1  UNL1        0.2221
     13 O         138.3152  145.5244  166.2978 O.2     1  UNL1       -0.2870
     14 C         137.3919  144.0415  164.3748 C.3     1  UNL1        0.1773
     15 C         137.5876  143.5156  162.9837 C.1     1  UNL1        0.0816
     16 N         137.7834  142.9897  161.5926 N.1     1  UNL1       -0.1954
@<TRIPOS>BOND
     1     1     2    1
     2     2     3   ar
     3     3    12    1
     4    12    13    2
     5    12    14    1
     6    14    15    1
     7    15    16    3
     8     3     4   ar
     9     4     5   ar
    10     5     6   ar
    11     6     7   ar
    12     7     8   ar
    13     8     9    1
    14     8    10   ar
    15    10    11   ar
    16    11     2   ar
    17    11     5   ar
@<TRIPOS>MOLECULE
*****
 16 17 0 0 0
SMALL
GASTEIGER

@<TRIPOS>ATOM
      1 C         143.3221  142.3849  168.9383 C.3     1  UNL1        0.0344
      2 C         142.9234  141.4027  167.8771 C.ar    1  UNL1        0.0185
      3 C         142.3497  140.0366  168.1110 C.ar    1  UNL1        0.1769
      4 O         142.1001  139.4037  166.7741 O.2     1  UNL1       -0.4509
      5 C         142.5195  140.3786  165.7141 C.ar    1  UNL1        0.1451
      6 C         142.5039  140.3009  164.2162 C.ar    1  UNL1        0.0380
      7 C         142.9970  141.4588  163.4001 C.ar    1  UNL1        0.0098
      8 C         143.5059  142.6942  164.0818 C.ar    1  UNL1        0.0348
      9 BR        143.9990  143.8521  163.2655 Br      1  UNL1       -0.0490
     10 C         143.5215  142.7719  165.5797 C.ar    1  UNL1        0.0095
     11 C         143.0284  141.6140  166.3958 C.ar    1  UNL1        0.0341
     12 C         142.0740  139.4129  169.4470 C.2     1  UNL1        0.2221
     13 O         143.0657  138.4628  170.0502 O.2     1  UNL1       -0.2870
     14 C         140.8067  139.7393  170.1799 C.3     1  UNL1        0.1773
     15 C         140.7562  140.9224  171.1007 C.1     1  UNL1        0.0816
     16 N         140.7057  142.1055  172.0214 N.1     1  UNL1       -0.1954
@<TRIPOS>BOND
     1     1     2    1
     2     2     3   ar
     3     3    12    1
     4    12    13    2
     5    12    14    1
     6    14    15    1
     7    15    16    3
     8     3     4   ar
     9     4     5   ar
    10     5     6   ar
    11     6     7   ar
    12     7     8   ar
    13     8     9    1
    14     8    10   ar
    15    10    11   ar
    16    11     2   ar
    17    11     5   ar
@<TRIPOS>MOLECULE
*****
 16 17 0 0 0
SMALL
GASTEIGER

@<TRIPOS>ATOM
      1 C         141.4137  142.8521  167.8786 C.3     1  UNL1        0.0344
      2 C         140.6670  141.7052  167.2645 C.ar    1  UNL1        0.0185
      3 C         140.7322  140.2732  167.7062 C.ar    1  UNL1        0.1769
      4 O         139.8295  139.4719  166.8157 O.2     1  UNL1       -0.4509
      5 C         139.2064  140.4087  165.8236 C.ar    1  UNL1        0.1451
      6 C         138.2347  140.1832  164.7034 C.ar    1  UNL1        0.0380
      7 C         137.7805  141.3379  163.8607 C.ar    1  UNL1        0.0098
      8 C         138.2981  142.7182  164.1381 C.ar    1  UNL1        0.0348
      9 BR        137.8439  143.8730  163.2954 Br      1  UNL1       -0.0490
     10 C         139.2699  142.9437  165.2583 C.ar    1  UNL1        0.0095
     11 C         139.7240  141.7890  166.1010 C.ar    1  UNL1        0.0341
     12 C         141.5555  139.7367  168.8395 C.2     1  UNL1        0.2221
     13 O         142.9651  139.2862  168.5949 O.2     1  UNL1       -0.2870
     14 C         140.9691  139.6506  170.2175 C.3     1  UNL1        0.1773
     15 C         140.7969  140.8943  171.0382 C.1     1  UNL1        0.0816
     16 N         140.6246  142.1379  171.8590 N.1     1  UNL1       -0.1954
@<TRIPOS>BOND
     1     1     2    1
     2     2     3   ar
     3     3    12    1
     4    12    13    2
     5    12    14    1
     6    14    15    1
     7    15    16    3
     8     3     4   ar
     9     4     5   ar
    10     5     6   ar
    11     6     7   ar
    12     7     8   ar
    13     8     9    1
    14     8    10   ar
    15    10    11   ar
    16    11     2   ar
    17    11     5   ar
@<TRIPOS>MOLECULE
*****
 16 17 0 0 0
SMALL
GASTEIGER

@<TRIPOS>ATOM
      1 C         142.6065  140.3841  167.9902 C.3     1  UNL1        0.0344
      2 C         141.1752  140.0244  167.7221 C.ar    1  UNL1        0.0185
      3 C         140.0076  140.3298  168.6129 C.ar    1  UNL1        0.1769
      4 O         138.7710  139.7903  167.9575 O.2     1  UNL1       -0.4509
      5 C         139.1742  139.1515  166.6616 C.ar    1  UNL1        0.1451
      6 C         138.3803  138.4567  165.5953 C.ar    1  UNL1        0.0380
      7 C         139.0724  137.9067  164.3835 C.ar    1  UNL1        0.0098
      8 C         140.5583  138.0514  164.2380 C.ar    1  UNL1        0.0348
      9 BR        141.2503  137.5013  163.0262 Br      1  UNL1       -0.0490
     10 C         141.3521  138.7461  165.3044 C.ar    1  UNL1        0.0095
     11 C         140.6601  139.2962  166.5161 C.ar    1  UNL1        0.0341
     12 C         140.0664  141.0485  169.9282 C.2     1  UNL1        0.2221
     13 O         139.8950  140.2854  171.2082 O.2     1  UNL1       -0.2870
     14 C         140.2966  142.5303  169.9636 C.3     1  UNL1        0.1773
     15 C         141.6433  143.0712  170.3427 C.1     1  UNL1        0.0816
     16 N         142.9901  143.6122  170.7217 N.1     1  UNL1       -0.1954
@<TRIPOS>BOND
     1     1     2    1
     2     2     3   ar
     3     3    12    1
     4    12    13    2
     5    12    14    1
     6    14    15    1
     7    15    16    3
     8     3     4   ar
     9     4     5   ar
    10     5     6   ar
    11     6     7   ar
    12     7     8   ar
    13     8     9    1
    14     8    10   ar
    15    10    11   ar
    16    11     2   ar
    17    11     5   ar
@<TRIPOS>MOLECULE
*****
 16 17 0 0 0
SMALL
GASTEIGER

@<TRIPOS>ATOM
      1 C         143.4979  138.5982  166.3609 C.3     1  UNL1        0.0344
      2 C         142.1158  139.1012  166.6557 C.ar    1  UNL1        0.0185
      3 C         141.6428  139.6644  167.9630 C.ar    1  UNL1        0.1769
      4 O         140.1988  140.0405  167.8102 O.2     1  UNL1       -0.4509
      5 C         139.7794  139.7097  166.4085 C.ar    1  UNL1        0.1451
      6 C         138.4717  139.8621  165.6897 C.ar    1  UNL1        0.0380
      7 C         138.3489  139.4339  164.2574 C.ar    1  UNL1        0.0098
      8 C         139.5337  138.8533  163.5439 C.ar    1  UNL1        0.0348
      9 BR        139.4108  138.4251  162.1115 Br      1  UNL1       -0.0490
     10 C         140.8414  138.7009  164.2627 C.ar    1  UNL1        0.0095
     11 C         140.9642  139.1291  165.6950 C.ar    1  UNL1        0.0341
     12 C         142.4687  139.8237  169.2049 C.2     1  UNL1        0.2221
     13 O         143.1197  138.6263  169.8314 O.2     1  UNL1       -0.2870
     14 C         142.6437  141.1803  169.8205 C.3     1  UNL1        0.1773
     15 C         141.6674  141.6687  170.8492 C.1     1  UNL1        0.0816
     16 N         140.6911  142.1571  171.8780 N.1     1  UNL1       -0.1954
@<TRIPOS>BOND
     1     1     2    1
     2     2     3   ar
     3     3    12    1
     4    12    13    2
     5    12    14    1
     6    14    15    1
     7    15    16    3
     8     3     4   ar
     9     4     5   ar
    10     5     6   ar
    11     6     7   ar
    12     7     8   ar
    13     8     9    1
    14     8    10   ar
    15    10    11   ar
    16    11     2   ar
    17    11     5   ar
@<TRIPOS>MOLECULE
*****
 16 17 0 0 0
SMALL
GASTEIGER

@<TRIPOS>ATOM
      1 C         139.5342  140.0246  167.8377 C.3     1  UNL1        0.0344
      2 C         140.5324  140.9629  167.2267 C.ar    1  UNL1        0.0185
      3 C         141.9601  141.1320  167.6545 C.ar    1  UNL1        0.1769
      4 O         142.5881  142.1704  166.7729 O.2     1  UNL1       -0.4509
      5 C         141.5486  142.6431  165.8003 C.ar    1  UNL1        0.1451
      6 C         141.5947  143.6566  164.6955 C.ar    1  UNL1        0.0380
      7 C         140.3704  143.9238  163.8712 C.ar    1  UNL1        0.0098
      8 C         139.0998  143.1775  164.1518 C.ar    1  UNL1        0.0348
      9 BR        137.8754  143.4447  163.3274 Br      1  UNL1       -0.0490
     10 C         139.0536  142.1640  165.2565 C.ar    1  UNL1        0.0095
     11 C         140.2780  141.8968  166.0808 C.ar    1  UNL1        0.0341
     12 C         142.6404  140.3926  168.7682 C.2     1  UNL1        0.2221
     13 O         143.0203  138.9525  168.5902 O.2     1  UNL1       -0.2870
     14 C         142.9407  141.0932  170.0601 C.3     1  UNL1        0.1773
     15 C         141.8182  141.5717  170.9324 C.1     1  UNL1        0.0816
     16 N         140.6956  142.0501  171.8048 N.1     1  UNL1       -0.1954
@<TRIPOS>BOND
     1     1     2    1
     2     2     3   ar
     3     3    12    1
     4    12    13    2
     5    12    14    1
     6    14    15    1
     7    15    16    3
     8     3     4   ar
     9     4     5   ar
    10     5     6   ar
    11     6     7   ar
    12     7     8   ar
    13     8     9    1
    14     8    10   ar
    15    10    11   ar
    16    11     2   ar
    17    11     5   ar
@<TRIPOS>MOLECULE
*****
 16 17 0 0 0
SMALL
GASTEIGER

@<TRIPOS>ATOM
      1 C         140.7951  142.6704  166.7039 C.3     1  UNL1        0.0344
      2 C         141.5005  141.3467  166.7029 C.ar    1  UNL1        0.0185
      3 C         141.1601  140.1655  167.5626 C.ar    1  UNL1        0.1769
      4 O         142.1194  139.0605  167.2329 O.2     1  UNL1       -0.4509
      5 C         143.0527  139.5587  166.1696 C.ar    1  UNL1        0.1451
      6 C         144.2015  138.9083  165.4573 C.ar    1  UNL1        0.0380
      7 C         144.9677  139.6709  164.4175 C.ar    1  UNL1        0.0098
      8 C         144.5852  141.0838  164.0899 C.ar    1  UNL1        0.0348
      9 BR        145.3515  141.8463  163.0500 Br      1  UNL1       -0.0490
     10 C         143.4365  141.7342  164.8022 C.ar    1  UNL1        0.0095
     11 C         142.6702  140.9716  165.8420 C.ar    1  UNL1        0.0341
     12 C         140.0544  140.1008  168.5742 C.2     1  UNL1        0.2221
     13 O         138.7359  139.4878  168.2059 O.2     1  UNL1       -0.2870
     14 C         140.2673  140.6490  169.9540 C.3     1  UNL1        0.1773
     15 C         140.0507  142.1087  170.2228 C.1     1  UNL1        0.0816
     16 N         139.8341  143.5684  170.4916 N.1     1  UNL1       -0.1954
@<TRIPOS>BOND
     1     1     2    1
     2     2     3   ar
     3     3    12    1
     4    12    13    2
     5    12    14    1
     6    14    15    1
     7    15    16    3
     8     3     4   ar
     9     4     5   ar
    10     5     6   ar
    11     6     7   ar
    12     7     8   ar
    13     8     9    1
    14     8    10   ar
    15    10    11   ar
    16    11     2   ar
    17    11     5   ar
@<TRIPOS>MOLECULE
*****
 16 17 0 0 0
SMALL
GASTEIGER

@<TRIPOS>ATOM
      1 C         137.7757  138.5905  166.8673 C.3     1  UNL1        0.0344
      2 C         138.8727  139.5273  166.4560 C.ar    1  UNL1        0.0185
      3 C         139.1906  139.9505  165.0525 C.ar    1  UNL1        0.1769
      4 O         140.3586  140.8901  165.1052 O.2     1  UNL1       -0.4509
      5 C         140.7626  141.0476  166.5411 C.ar    1  UNL1        0.1451
      6 C         141.8481  141.8491  167.1963 C.ar    1  UNL1        0.0380
      7 C         142.0151  141.8083  168.6864 C.ar    1  UNL1        0.0098
      8 C         141.0967  140.9660  169.5213 C.ar    1  UNL1        0.0348
      9 BR        141.2638  140.9252  171.0114 Br      1  UNL1       -0.0490
     10 C         140.0113  140.1645  168.8661 C.ar    1  UNL1        0.0095
     11 C         139.8442  140.2053  167.3760 C.ar    1  UNL1        0.0341
     12 C         138.4674  139.5113  163.8139 C.2     1  UNL1        0.2221
     13 O         137.5296  140.4534  163.1191 O.2     1  UNL1       -0.2870
     14 C         138.6820  138.1299  163.2702 C.3     1  UNL1        0.1773
     15 C         140.0169  137.7458  162.7040 C.1     1  UNL1        0.0816
     16 N         141.3517  137.3616  162.1377 N.1     1  UNL1       -0.1954
@<TRIPOS>BOND
     1     1     2    1
     2     2     3   ar
     3     3    12    1
     4    12    13    2
     5    12    14    1
     6    14    15    1
     7    15    16    3
     8     3     4   ar
     9     4     5   ar
    10     5     6   ar
    11     6     7   ar
    12     7     8   ar
    13     8     9    1
    14     8    10   ar
    15    10    11   ar
    16    11     2   ar
    17    11     5   ar
@<TRIPOS>MOLECULE
*****
 16 17 0 0 0
SMALL
GASTEIGER

@<TRIPOS>ATOM
      1 C         142.4109  141.8844  167.0209 C.3     1  UNL1        0.0344
      2 C         141.1357  141.2146  167.4396 C.ar    1  UNL1        0.0185
      3 C         140.3684  141.4883  168.6991 C.ar    1  UNL1        0.1769
      4 O         139.1624  140.5964  168.7101 O.2     1  UNL1       -0.4509
      5 C         139.1844  139.7715  167.4575 C.ar    1  UNL1        0.1451
      6 C         138.2515  138.7219  166.9304 C.ar    1  UNL1        0.0380
      7 C         138.5381  138.0543  165.6181 C.ar    1  UNL1        0.0098
      8 C         139.7577  138.4364  164.8329 C.ar    1  UNL1        0.0348
      9 BR        140.0444  137.7689  163.5205 Br      1  UNL1       -0.0490
     10 C         140.6907  139.4861  165.3599 C.ar    1  UNL1        0.0095
     11 C         140.4040  140.1536  166.6722 C.ar    1  UNL1        0.0341
     12 C         140.7415  142.4797  169.7611 C.2     1  UNL1        0.2221
     13 O         140.1486  143.8574  169.7425 O.2     1  UNL1       -0.2870
     14 C         141.7075  142.0935  170.8416 C.3     1  UNL1        0.1773
     15 C         142.4853  140.8156  170.7307 C.1     1  UNL1        0.0816
     16 N         143.2630  139.5378  170.6198 N.1     1  UNL1       -0.1954
@<TRIPOS>BOND
     1     1     2    1
     2     2     3   ar
     3     3    12    1
     4    12    13    2
     5    12    14    1
     6    14    15    1
     7    15    16    3
     8     3     4   ar
     9     4     5   ar
    10     5     6   ar
    11     6     7   ar
    12     7     8   ar
    13     8     9    1
    14     8    10   ar
    15    10    11   ar
    16    11     2   ar
    17    11     5   ar
