@<TRIPOS>MOLECULE
*****
 38 41 0 0 0
SMALL
GASTEIGER

@<TRIPOS>ATOM
      1 N         139.0552  143.7051  162.0069 N.ar    1  UNL1       -0.2399
      2 C         139.0790  142.2115  161.8709 C.ar    1  UNL1        0.2819
      3 O         138.5472  141.3490  162.9769 O.2     1  UNL1       -0.2652
      4 C         139.6347  141.5803  160.6288 C.ar    1  UNL1        0.1349
      5 C         140.1665  142.4427  159.5227 C.ar    1  UNL1        0.0966
      6 C         140.6491  141.5426  158.4241 C.ar    1  UNL1        0.1156
      7 C         140.4155  140.1238  158.8513 C.ar    1  UNL1        0.1240
      8 N         139.7886  140.1471  160.2138 N.ar    1  UNL1       -0.3063
      9 N         140.1426  143.9364  159.6588 N.ar    1  UNL1       -0.2770
     10 C         140.6745  144.7989  158.5527 C.3     1  UNL1        0.1351
     11 C         139.5869  144.5675  160.9010 C.ar    1  UNL1        0.3343
     12 O         139.5631  146.0612  161.0370 O.2     1  UNL1       -0.2462
     13 N         140.7501  138.8970  158.0556 N.pl3   1  UNL1       -0.2925
     14 C         142.1270  138.3404  158.2658 C.3     1  UNL1        0.0936
     15 C         142.7574  137.1384  157.6274 C.3     1  UNL1        0.0385
     16 C         142.1666  136.1961  156.6208 C.3     1  UNL1        0.0704
     17 N         140.7996  136.2231  156.0042 N.3     1  UNL1       -0.2960
     18 C         139.6855  137.1991  156.2419 C.3     1  UNL1        0.0903
     19 C         139.6635  138.3891  157.1548 C.3     1  UNL1        0.1092
     20 H         140.3971  135.3148  156.2352 H       1  UNL1        0.1233
     21 C         141.2582  141.9838  157.1263 C.1     1  UNL1        0.1047
     22 N         141.8674  142.4249  155.8286 N.1     1  UNL1       -0.1907
     23 C         138.4995  144.3362  163.2491 C.3     1  UNL1        0.1826
     24 C         139.3964  144.5993  164.4223 C.2     1  UNL1        0.1961
     25 O         138.8217  145.1329  165.7010 O.2     1  UNL1       -0.2893
     26 C         142.8902  142.7292  164.6367 C.ar    1  UNL1        0.1388
     27 C         143.8112  143.7875  164.1058 C.ar    1  UNL1        0.0369
     28 C         143.2606  145.1163  163.6805 C.ar    1  UNL1        0.0032
     29 C         141.7890  145.3870  163.7859 C.ar    1  UNL1        0.0031
     30 C         140.8680  144.3287  164.3168 C.ar    1  UNL1        0.0397
     31 C         141.4186  142.9998  164.7422 C.ar    1  UNL1        0.0398
     32 C         144.6333  140.8228  164.3589 C.3     1  UNL1        0.2525
     33 O         143.4408  141.4003  165.0620 O.3     1  UNL1       -0.4714
     34 C         139.3862  138.9477  161.0198 C.3     1  UNL1        0.1332
     35 C         140.4189  138.1837  161.7941 C.2     1  UNL1       -0.0102
     36 C         140.1191  137.7192  163.1886 C.2     1  UNL1       -0.0460
     37 C         141.1519  136.9551  163.9629 C.3     1  UNL1        0.0261
     38 C         138.7866  138.0188  163.8086 C.3     1  UNL1        0.0261
@<TRIPOS>BOND
     1    32    33    1
     2    33    26    1
     3    26    27   ar
     4    27    28   ar
     5    28    29   ar
     6    29    30   ar
     7    30    24    1
     8    24    25    2
     9    24    23    1
    10    23     1    1
    11     1     2   ar
    12     2     3    2
    13     2     4   ar
    14     4     5   ar
    15     5     6   ar
    16     6    21    1
    17    21    22    3
    18     6     7   ar
    19     7    13    1
    20    13    14    1
    21    14    15    1
    22    15    16    1
    23    16    17    1
    24    17    18    1
    25    18    19    1
    26     7     8   ar
    27     8    34    1
    28    34    35    1
    29    35    36    2
    30    36    37    1
    31    36    38    1
    32     5     9   ar
    33     9    10    1
    34     9    11   ar
    35    11    12    2
    36    30    31   ar
    37    31    26   ar
    38    11     1   ar
    39     8     4   ar
    40    19    13    1
    41    17    20    1
@<TRIPOS>MOLECULE
*****
 38 41 0 0 0
SMALL
GASTEIGER

@<TRIPOS>ATOM
      1 N         140.4971  143.2856  161.1831 N.ar    1  UNL1       -0.2399
      2 C         139.8563  142.7220  162.4166 C.ar    1  UNL1        0.2819
      3 O         138.4509  142.2007  162.3604 O.2     1  UNL1       -0.2652
      4 C         140.6210  142.6796  163.7064 C.ar    1  UNL1        0.1349
      5 C         142.0264  143.2009  163.7627 C.ar    1  UNL1        0.0966
      6 C         142.5287  143.0292  165.1656 C.ar    1  UNL1        0.1156
      7 C         141.4337  142.4018  165.9764 C.ar    1  UNL1        0.1240
      8 N         140.2547  142.1858  165.0746 N.ar    1  UNL1       -0.3063
      9 N         142.6671  143.7645  162.5291 N.ar    1  UNL1       -0.2770
     10 C         144.0726  144.2858  162.5852 C.3     1  UNL1        0.1351
     11 C         141.9024  143.8068  161.2393 C.ar    1  UNL1        0.3343
     12 O         142.5432  144.3705  160.0056 O.2     1  UNL1       -0.2462
     13 N         141.5052  142.0519  167.4333 N.pl3   1  UNL1       -0.2925
     14 C         142.3481  140.8593  167.7756 C.3     1  UNL1        0.0936
     15 C         142.6184  140.2611  169.1243 C.3     1  UNL1        0.0385
     16 C         142.1124  140.7078  170.4639 C.3     1  UNL1        0.0704
     17 N         141.2114  141.8630  170.7856 N.3     1  UNL1       -0.2960
     18 C         140.5936  142.8568  169.8472 C.3     1  UNL1        0.0903
     19 C         140.7244  142.9409  168.3552 C.3     1  UNL1        0.1092
     20 H         141.7478  142.4304  171.4419 H       1  UNL1        0.1233
     21 C         143.8874  143.4168  165.6692 C.1     1  UNL1        0.1047
     22 N         145.2461  143.8045  166.1729 N.1     1  UNL1       -0.1907
     23 C         139.7324  143.3279  159.8933 C.3     1  UNL1        0.1826
     24 C         139.8686  142.2090  158.9036 C.2     1  UNL1        0.1961
     25 O         139.3323  142.3691  157.5119 O.2     1  UNL1       -0.2893
     26 C         140.4814  138.6522  160.5539 C.ar    1  UNL1        0.1388
     27 C         141.8864  138.3718  160.1096 C.ar    1  UNL1        0.0369
     28 C         142.6188  139.3705  159.2634 C.ar    1  UNL1        0.0032
     29 C         141.9463  140.6496  158.8613 C.ar    1  UNL1        0.0031
     30 C         140.5412  140.9300  159.3056 C.ar    1  UNL1        0.0397
     31 C         139.8088  139.9313  160.1519 C.ar    1  UNL1        0.0398
     32 C         138.4643  138.0384  162.0719 C.3     1  UNL1        0.2525
     33 O         139.7490  137.6535  161.4002 O.3     1  UNL1       -0.4714
     34 C         138.9402  141.5819  165.4714 C.3     1  UNL1        0.1332
     35 C         138.6547  140.1409  165.1678 C.2     1  UNL1       -0.0102
     36 C         138.6109  139.1346  166.2794 C.2     1  UNL1       -0.0460
     37 C         138.3254  137.6937  165.9758 C.3     1  UNL1        0.0261
     38 C         138.8525  139.5694  167.6945 C.3     1  UNL1        0.0261
@<TRIPOS>BOND
     1    32    33    1
     2    33    26    1
     3    26    27   ar
     4    27    28   ar
     5    28    29   ar
     6    29    30   ar
     7    30    24    1
     8    24    25    2
     9    24    23    1
    10    23     1    1
    11     1     2   ar
    12     2     3    2
    13     2     4   ar
    14     4     5   ar
    15     5     6   ar
    16     6    21    1
    17    21    22    3
    18     6     7   ar
    19     7    13    1
    20    13    14    1
    21    14    15    1
    22    15    16    1
    23    16    17    1
    24    17    18    1
    25    18    19    1
    26     7     8   ar
    27     8    34    1
    28    34    35    1
    29    35    36    2
    30    36    37    1
    31    36    38    1
    32     5     9   ar
    33     9    10    1
    34     9    11   ar
    35    11    12    2
    36    30    31   ar
    37    31    26   ar
    38    11     1   ar
    39     8     4   ar
    40    19    13    1
    41    17    20    1
@<TRIPOS>MOLECULE
*****
 38 41 0 0 0
SMALL
GASTEIGER

@<TRIPOS>ATOM
      1 N         140.2197  143.4453  160.9357 N.ar    1  UNL1       -0.2399
      2 C         139.6076  142.7073  162.0893 C.ar    1  UNL1        0.2819
      3 O         138.2392  142.1077  161.9549 O.2     1  UNL1       -0.2652
      4 C         140.3639  142.5689  163.3772 C.ar    1  UNL1        0.1349
      5 C         141.7323  143.1685  163.5116 C.ar    1  UNL1        0.0966
      6 C         142.2344  142.8726  164.8937 C.ar    1  UNL1        0.1156
      7 C         141.1763  142.0901  165.6136 C.ar    1  UNL1        0.1240
      8 N         140.0203  141.9024  164.6763 N.ar    1  UNL1       -0.3063
      9 N         142.3443  143.9066  162.3580 N.ar    1  UNL1       -0.2770
     10 C         143.7127  144.5062  162.4923 C.3     1  UNL1        0.1351
     11 C         141.5879  144.0449  161.0700 C.ar    1  UNL1        0.3343
     12 O         142.2000  144.7830  159.9164 O.2     1  UNL1       -0.2462
     13 N         141.2596  141.5841  167.0232 N.pl3   1  UNL1       -0.2925
     14 C         142.0522  140.3255  167.2171 C.3     1  UNL1        0.0936
     15 C         142.3203  139.5755  168.4882 C.3     1  UNL1        0.0385
     16 C         141.8619  139.8990  169.8793 C.3     1  UNL1        0.0704
     17 N         141.0223  141.0522  170.3429 N.3     1  UNL1       -0.2960
     18 C         140.4337  142.1669  169.5300 C.3     1  UNL1        0.0903
     19 C         140.5393  142.4036  168.0525 C.3     1  UNL1        0.1092
     20 H         141.5973  141.5220  171.0422 H       1  UNL1        0.1233
     21 C         143.5615  143.2866  165.4571 C.1     1  UNL1        0.1047
     22 N         144.8886  143.7005  166.0205 N.1     1  UNL1       -0.1907
     23 C         139.4633  143.5837  159.6477 C.3     1  UNL1        0.1826
     24 C         139.5054  142.4815  158.6312 C.2     1  UNL1        0.1961
     25 O         140.6074  141.4647  158.6725 O.2     1  UNL1       -0.2893
     26 C         136.3865  141.1920  156.5431 C.ar    1  UNL1        0.1388
     27 C         136.3255  142.2252  155.4574 C.ar    1  UNL1        0.0369
     28 C         137.3244  143.3437  155.4296 C.ar    1  UNL1        0.0032
     29 C         138.3844  143.4293  156.4875 C.ar    1  UNL1        0.0031
     30 C         138.4454  142.3961  157.5733 C.ar    1  UNL1        0.0397
     31 C         137.4465  141.2774  157.6011 C.ar    1  UNL1        0.0398
     32 C         133.9655  140.3275  156.1673 C.3     1  UNL1        0.2525
     33 O         135.3876  140.0733  156.5709 O.3     1  UNL1       -0.4714
     34 C         138.7447  141.1758  164.9842 C.3     1  UNL1        0.1332
     35 C         138.6473  139.6980  164.7464 C.2     1  UNL1       -0.0102
     36 C         138.5239  138.7578  165.9088 C.2     1  UNL1       -0.0460
     37 C         138.4265  137.2800  165.6710 C.3     1  UNL1        0.0261
     38 C         138.4979  139.2956  167.3088 C.3     1  UNL1        0.0261
@<TRIPOS>BOND
     1    32    33    1
     2    33    26    1
     3    26    27   ar
     4    27    28   ar
     5    28    29   ar
     6    29    30   ar
     7    30    24    1
     8    24    25    2
     9    24    23    1
    10    23     1    1
    11     1     2   ar
    12     2     3    2
    13     2     4   ar
    14     4     5   ar
    15     5     6   ar
    16     6    21    1
    17    21    22    3
    18     6     7   ar
    19     7    13    1
    20    13    14    1
    21    14    15    1
    22    15    16    1
    23    16    17    1
    24    17    18    1
    25    18    19    1
    26     7     8   ar
    27     8    34    1
    28    34    35    1
    29    35    36    2
    30    36    37    1
    31    36    38    1
    32     5     9   ar
    33     9    10    1
    34     9    11   ar
    35    11    12    2
    36    30    31   ar
    37    31    26   ar
    38    11     1   ar
    39     8     4   ar
    40    19    13    1
    41    17    20    1
@<TRIPOS>MOLECULE
*****
 38 41 0 0 0
SMALL
GASTEIGER

@<TRIPOS>ATOM
      1 N         141.5110  139.2108  161.7344 N.ar    1  UNL1       -0.2399
      2 C         142.1808  139.9199  162.8739 C.ar    1  UNL1        0.2819
      3 O         143.4519  140.6813  162.6403 O.2     1  UNL1       -0.2652
      4 C         141.5795  139.8675  164.2471 C.ar    1  UNL1        0.1349
      5 C         140.3084  139.1061  164.4808 C.ar    1  UNL1        0.0966
      6 C         139.9532  139.2313  165.9327 C.ar    1  UNL1        0.1156
      7 C         141.0048  140.0702  166.5964 C.ar    1  UNL1        0.1240
      8 N         142.0099  140.4634  165.5547 N.ar    1  UNL1       -0.3063
      9 N         139.6386  138.3970  163.3412 N.ar    1  UNL1       -0.2770
     10 C         138.3675  137.6355  163.5748 C.3     1  UNL1        0.1351
     11 C         140.2400  138.4494  161.9680 C.ar    1  UNL1        0.3343
     12 O         139.5701  137.7403  160.8283 O.2     1  UNL1       -0.2462
     13 N         141.0443  140.4493  168.0472 N.pl3   1  UNL1       -0.2925
     14 C         140.1893  141.6181  168.4380 C.3     1  UNL1        0.0936
     15 C         140.0123  142.2359  169.7933 C.3     1  UNL1        0.0385
     16 C         140.6469  141.8373  171.0928 C.3     1  UNL1        0.0704
     17 N         141.6150  140.7227  171.3577 N.3     1  UNL1       -0.2960
     18 C         142.1877  139.7312  170.3887 C.3     1  UNL1        0.0903
     19 C         141.9338  139.6096  168.9153 C.3     1  UNL1        0.1092
     20 H         141.1581  140.1509  172.0682 H       1  UNL1        0.1233
     21 C         138.7566  138.6243  166.6032 C.1     1  UNL1        0.1047
     22 N         137.5599  138.0173  167.2737 N.1     1  UNL1       -0.1907
     23 C         142.1123  139.2632  160.3611 C.3     1  UNL1        0.1826
     24 C         141.7343  140.3671  159.4185 C.2     1  UNL1        0.1961
     25 O         141.7753  140.1355  157.9371 O.2     1  UNL1       -0.2893
     26 C         139.4784  143.2594  160.9338 C.ar    1  UNL1        0.1388
     27 C         140.4770  144.3741  161.0351 C.ar    1  UNL1        0.0369
     28 C         141.8946  144.1532  160.5976 C.ar    1  UNL1        0.0032
     29 C         142.3138  142.8176  160.0587 C.ar    1  UNL1        0.0031
     30 C         141.3152  141.7028  159.9574 C.ar    1  UNL1        0.0397
     31 C         139.8975  141.9237  160.3949 C.ar    1  UNL1        0.0398
     32 C         137.7085  143.4266  162.8284 C.3     1  UNL1        0.2525
     33 O         138.0608  143.4803  161.3713 O.3     1  UNL1       -0.4714
     34 C         143.2310  141.3047  165.7808 C.3     1  UNL1        0.1332
     35 C         143.1653  142.7902  165.5834 C.2     1  UNL1       -0.0102
     36 C         144.2181  143.4864  164.7729 C.2     1  UNL1       -0.0460
     37 C         144.1524  144.9719  164.5755 C.3     1  UNL1        0.0261
     38 C         145.3365  142.6971  164.1598 C.3     1  UNL1        0.0261
@<TRIPOS>BOND
     1    32    33    1
     2    33    26    1
     3    26    27   ar
     4    27    28   ar
     5    28    29   ar
     6    29    30   ar
     7    30    24    1
     8    24    25    2
     9    24    23    1
    10    23     1    1
    11     1     2   ar
    12     2     3    2
    13     2     4   ar
    14     4     5   ar
    15     5     6   ar
    16     6    21    1
    17    21    22    3
    18     6     7   ar
    19     7    13    1
    20    13    14    1
    21    14    15    1
    22    15    16    1
    23    16    17    1
    24    17    18    1
    25    18    19    1
    26     7     8   ar
    27     8    34    1
    28    34    35    1
    29    35    36    2
    30    36    37    1
    31    36    38    1
    32     5     9   ar
    33     9    10    1
    34     9    11   ar
    35    11    12    2
    36    30    31   ar
    37    31    26   ar
    38    11     1   ar
    39     8     4   ar
    40    19    13    1
    41    17    20    1
@<TRIPOS>MOLECULE
*****
 38 41 0 0 0
SMALL
GASTEIGER

@<TRIPOS>ATOM
      1 N         142.9672  143.0569  160.8587 N.ar    1  UNL1       -0.2399
      2 C         143.1244  142.0875  161.9925 C.ar    1  UNL1        0.2819
      3 O         144.1207  140.9707  161.8916 O.2     1  UNL1       -0.2652
      4 C         142.2853  142.2348  163.2270 C.ar    1  UNL1        0.1349
      5 C         141.2890  143.3516  163.3278 C.ar    1  UNL1        0.0966
      6 C         140.6066  143.2453  164.6594 C.ar    1  UNL1        0.1156
      7 C         141.1813  142.0628  165.3816 C.ar    1  UNL1        0.1240
      8 N         142.2188  141.4383  164.4963 N.ar    1  UNL1       -0.3063
      9 N         141.1317  144.3210  162.1941 N.ar    1  UNL1       -0.2770
     10 C         140.1354  145.4378  162.2948 C.3     1  UNL1        0.1351
     11 C         141.9709  144.1736  160.9595 C.ar    1  UNL1        0.3343
     12 O         141.8137  145.1431  159.8256 O.2     1  UNL1       -0.2462
     13 N         140.7876  141.5881  166.7490 N.pl3   1  UNL1       -0.2925
     14 C         141.4815  142.2607  167.8962 C.3     1  UNL1        0.0936
     15 C         141.3113  142.0151  169.3661 C.3     1  UNL1        0.0385
     16 C         140.4051  141.0359  170.0518 C.3     1  UNL1        0.0704
     17 N         139.4454  140.0609  169.4371 N.3     1  UNL1       -0.2960
     18 C         139.1547  139.8239  167.9847 C.3     1  UNL1        0.0903
     19 C         139.7521  140.5036  166.7883 C.3     1  UNL1        0.1092
     20 H         138.5411  140.3022  169.8426 H       1  UNL1        0.1233
     21 C         139.5374  144.1607  165.1778 C.1     1  UNL1        0.1047
     22 N         138.4682  145.0762  165.6962 N.1     1  UNL1       -0.1907
     23 C         143.8064  142.9095  159.6241 C.3     1  UNL1        0.1826
     24 C         143.2360  142.2490  158.4041 C.2     1  UNL1        0.1961
     25 O         143.3864  142.8981  157.0601 O.2     1  UNL1       -0.2893
     26 C         140.2996  139.5825  158.5361 C.ar    1  UNL1        0.1388
     27 C         141.0736  138.3202  158.7757 C.ar    1  UNL1        0.0369
     28 C         142.5683  138.3674  158.8915 C.ar    1  UNL1        0.0032
     29 C         143.2892  139.6770  158.7677 C.ar    1  UNL1        0.0031
     30 C         142.5152  140.9394  158.5280 C.ar    1  UNL1        0.0397
     31 C         141.0204  140.8921  158.4122 C.ar    1  UNL1        0.0398
     32 C         137.9505  140.1851  159.4680 C.3     1  UNL1        0.2525
     33 O         138.8048  139.5352  158.4203 O.3     1  UNL1       -0.4714
     34 C         143.0446  140.2295  164.8231 C.3     1  UNL1        0.1332
     35 C         142.3736  138.9255  165.1381 C.2     1  UNL1       -0.0102
     36 C         141.7563  138.1145  164.0374 C.2     1  UNL1       -0.0460
     37 C         141.0853  136.8105  164.3525 C.3     1  UNL1        0.0261
     38 C         141.8102  138.6075  162.6218 C.3     1  UNL1        0.0261
@<TRIPOS>BOND
     1    32    33    1
     2    33    26    1
     3    26    27   ar
     4    27    28   ar
     5    28    29   ar
     6    29    30   ar
     7    30    24    1
     8    24    25    2
     9    24    23    1
    10    23     1    1
    11     1     2   ar
    12     2     3    2
    13     2     4   ar
    14     4     5   ar
    15     5     6   ar
    16     6    21    1
    17    21    22    3
    18     6     7   ar
    19     7    13    1
    20    13    14    1
    21    14    15    1
    22    15    16    1
    23    16    17    1
    24    17    18    1
    25    18    19    1
    26     7     8   ar
    27     8    34    1
    28    34    35    1
    29    35    36    2
    30    36    37    1
    31    36    38    1
    32     5     9   ar
    33     9    10    1
    34     9    11   ar
    35    11    12    2
    36    30    31   ar
    37    31    26   ar
    38    11     1   ar
    39     8     4   ar
    40    19    13    1
    41    17    20    1
@<TRIPOS>MOLECULE
*****
 38 41 0 0 0
SMALL
GASTEIGER

@<TRIPOS>ATOM
      1 N         142.3366  142.7926  160.1056 N.ar    1  UNL1       -0.2399
      2 C         142.1990  141.6085  161.0161 C.ar    1  UNL1        0.2819
      3 O         142.8331  140.3004  160.6462 O.2     1  UNL1       -0.2652
      4 C         141.4275  141.7325  162.2964 C.ar    1  UNL1        0.1349
      5 C         140.7934  143.0407  162.6662 C.ar    1  UNL1        0.0966
      6 C         140.0983  142.8629  163.9835 C.ar    1  UNL1        0.1156
      7 C         140.3028  141.4449  164.4278 C.ar    1  UNL1        0.1240
      8 N         141.1242  140.7463  163.3851 N.ar    1  UNL1       -0.3063
      9 N         140.9309  144.2247  161.7557 N.ar    1  UNL1       -0.2770
     10 C         140.2969  145.5329  162.1255 C.3     1  UNL1        0.1351
     11 C         141.7025  144.1006  160.4753 C.ar    1  UNL1        0.3343
     12 O         141.8401  145.2848  159.5648 O.2     1  UNL1       -0.2462
     13 N         139.7779  140.8328  165.6927 N.pl3   1  UNL1       -0.2925
     14 C         140.4447  141.2826  166.9588 C.3     1  UNL1        0.0936
     15 C         140.1540  140.8627  168.3691 C.3     1  UNL1        0.0385
     16 C         139.1246  139.8891  168.8617 C.3     1  UNL1        0.0704
     17 N         138.1318  139.0952  168.0656 N.3     1  UNL1       -0.2960
     18 C         137.9230  139.0786  166.5803 C.3     1  UNL1        0.0903
     19 C         138.6557  139.8519  165.5242 C.3     1  UNL1        0.1092
     20 H         137.2249  139.3630  168.4481 H       1  UNL1        0.1233
     21 C         139.3331  143.9179  164.7261 C.1     1  UNL1        0.1047
     22 N         138.5679  144.9729  165.4687 N.1     1  UNL1       -0.1907
     23 C         143.1082  142.6684  158.8252 C.3     1  UNL1        0.1826
     24 C         144.5919  142.4511  158.8618 C.2     1  UNL1        0.1961
     25 O         145.3566  142.7079  160.1265 O.2     1  UNL1       -0.2893
     26 C         145.5566  140.2749  155.6864 C.ar    1  UNL1        0.1388
     27 C         146.7492  141.0290  155.1776 C.ar    1  UNL1        0.0369
     28 C         147.2227  142.2572  155.8968 C.ar    1  UNL1        0.0032
     29 C         146.5037  142.7313  157.1249 C.ar    1  UNL1        0.0031
     30 C         145.3110  141.9771  157.6337 C.ar    1  UNL1        0.0397
     31 C         144.8375  140.7489  156.9145 C.ar    1  UNL1        0.0398
     32 C         143.7339  138.4691  155.2774 C.3     1  UNL1        0.2525
     33 O         145.0830  139.0467  154.9671 O.3     1  UNL1       -0.4714
     34 C         141.5650  139.3130  163.4243 C.3     1  UNL1        0.1332
     35 C         142.0013  138.6977  164.7209 C.2     1  UNL1       -0.0102
     36 C         143.4362  138.7880  165.1486 C.2     1  UNL1       -0.0460
     37 C         143.8724  138.1727  166.4452 C.3     1  UNL1        0.0261
     38 C         144.4348  139.4935  164.2798 C.3     1  UNL1        0.0261
@<TRIPOS>BOND
     1    32    33    1
     2    33    26    1
     3    26    27   ar
     4    27    28   ar
     5    28    29   ar
     6    29    30   ar
     7    30    24    1
     8    24    25    2
     9    24    23    1
    10    23     1    1
    11     1     2   ar
    12     2     3    2
    13     2     4   ar
    14     4     5   ar
    15     5     6   ar
    16     6    21    1
    17    21    22    3
    18     6     7   ar
    19     7    13    1
    20    13    14    1
    21    14    15    1
    22    15    16    1
    23    16    17    1
    24    17    18    1
    25    18    19    1
    26     7     8   ar
    27     8    34    1
    28    34    35    1
    29    35    36    2
    30    36    37    1
    31    36    38    1
    32     5     9   ar
    33     9    10    1
    34     9    11   ar
    35    11    12    2
    36    30    31   ar
    37    31    26   ar
    38    11     1   ar
    39     8     4   ar
    40    19    13    1
    41    17    20    1
@<TRIPOS>MOLECULE
*****
 38 41 0 0 0
SMALL
GASTEIGER

@<TRIPOS>ATOM
      1 N         140.2529  143.4560  161.2665 N.ar    1  UNL1       -0.2399
      2 C         139.6617  142.7323  162.4398 C.ar    1  UNL1        0.2819
      3 O         138.2804  142.1549  162.3464 O.2     1  UNL1       -0.2652
      4 C         140.4517  142.5860  163.7064 C.ar    1  UNL1        0.1349
      5 C         141.8330  143.1634  163.7998 C.ar    1  UNL1        0.0966
      6 C         142.3690  142.8641  165.1684 C.ar    1  UNL1        0.1156
      7 C         141.3190  142.1017  165.9209 C.ar    1  UNL1        0.1240
      8 N         140.1340  141.9298  165.0173 N.ar    1  UNL1       -0.3063
      9 N         142.4242  143.8871  162.6265 N.ar    1  UNL1       -0.2770
     10 C         143.8055  144.4646  162.7198 C.3     1  UNL1        0.1351
     11 C         141.6341  144.0334  161.3598 C.ar    1  UNL1        0.3343
     12 O         142.2254  144.7572  160.1865 O.2     1  UNL1       -0.2462
     13 N         141.4338  141.5993  167.3296 N.pl3   1  UNL1       -0.2925
     14 C         142.2162  140.3319  167.5069 C.3     1  UNL1        0.0936
     15 C         142.5091  139.5829  168.7730 C.3     1  UNL1        0.0385
     16 C         142.0918  139.9164  170.1748 C.3     1  UNL1        0.0704
     17 N         141.2786  141.0811  170.6564 N.3     1  UNL1       -0.2960
     18 C         140.6818  142.2002  169.8554 C.3     1  UNL1        0.0903
     19 C         140.7509  142.4308  168.3748 C.3     1  UNL1        0.1092
     20 H         141.8776  141.5463  171.3384 H       1  UNL1        0.1233
     21 C         143.7181  143.2580  165.6925 C.1     1  UNL1        0.1047
     22 N         145.0673  143.6519  166.2166 N.1     1  UNL1       -0.1907
     23 C         139.4628  143.6024  159.9998 C.3     1  UNL1        0.1826
     24 C         139.6687  142.6355  158.8716 C.2     1  UNL1        0.1961
     25 O         139.4587  143.0805  157.4546 O.2     1  UNL1       -0.2893
     26 C         141.9562  139.4540  159.5004 C.ar    1  UNL1        0.1388
     27 C         140.9161  138.3996  159.7381 C.ar    1  UNL1        0.0369
     28 C         139.4603  138.7571  159.6870 C.ar    1  UNL1        0.0032
     29 C         139.0444  140.1690  159.3982 C.ar    1  UNL1        0.0031
     30 C         140.0845  141.2235  159.1605 C.ar    1  UNL1        0.0397
     31 C         141.5403  140.8659  159.2115 C.ar    1  UNL1        0.0398
     32 C         144.1001  138.9406  160.8752 C.3     1  UNL1        0.2525
     33 O         143.4120  139.0964  159.5515 O.3     1  UNL1       -0.4714
     34 C         138.8559  141.2254  165.3639 C.3     1  UNL1        0.1332
     35 C         138.8875  139.7996  165.8287 C.2     1  UNL1       -0.0102
     36 C         138.8183  138.6832  164.8292 C.2     1  UNL1       -0.0460
     37 C         138.8500  137.2573  165.2941 C.3     1  UNL1        0.0261
     38 C         138.7174  138.9926  163.3650 C.3     1  UNL1        0.0261
@<TRIPOS>BOND
     1    32    33    1
     2    33    26    1
     3    26    27   ar
     4    27    28   ar
     5    28    29   ar
     6    29    30   ar
     7    30    24    1
     8    24    25    2
     9    24    23    1
    10    23     1    1
    11     1     2   ar
    12     2     3    2
    13     2     4   ar
    14     4     5   ar
    15     5     6   ar
    16     6    21    1
    17    21    22    3
    18     6     7   ar
    19     7    13    1
    20    13    14    1
    21    14    15    1
    22    15    16    1
    23    16    17    1
    24    17    18    1
    25    18    19    1
    26     7     8   ar
    27     8    34    1
    28    34    35    1
    29    35    36    2
    30    36    37    1
    31    36    38    1
    32     5     9   ar
    33     9    10    1
    34     9    11   ar
    35    11    12    2
    36    30    31   ar
    37    31    26   ar
    38    11     1   ar
    39     8     4   ar
    40    19    13    1
    41    17    20    1
@<TRIPOS>MOLECULE
*****
 38 41 0 0 0
SMALL
GASTEIGER

@<TRIPOS>ATOM
      1 N         140.0956  139.1527  160.9394 N.ar    1  UNL1       -0.2399
      2 C         139.7092  139.7480  162.2609 C.ar    1  UNL1        0.2819
      3 O         138.3199  140.2737  162.4692 O.2     1  UNL1       -0.2652
      4 C         140.7122  139.8177  163.3741 C.ar    1  UNL1        0.1349
      5 C         142.1016  139.2919  163.1658 C.ar    1  UNL1        0.0966
      6 C         142.8695  139.4946  164.4382 C.ar    1  UNL1        0.1156
      7 C         141.9548  140.1456  165.4329 C.ar    1  UNL1        0.1240
      8 N         140.6215  140.3453  164.7753 N.ar    1  UNL1       -0.3063
      9 N         142.4879  138.6966  161.8443 N.ar    1  UNL1       -0.2770
     10 C         143.8773  138.1709  161.6359 C.3     1  UNL1        0.1351
     11 C         141.4848  138.6270  160.7311 C.ar    1  UNL1        0.3343
     12 O         141.8712  138.0316  159.4096 O.2     1  UNL1       -0.2462
     13 N         142.3108  140.5295  166.8386 N.pl3   1  UNL1       -0.2925
     14 C         142.9163  141.8914  167.0078 C.3     1  UNL1        0.0936
     15 C         143.3748  142.5610  168.2692 C.3     1  UNL1        0.0385
     16 C         143.3410  142.0340  169.6733 C.3     1  UNL1        0.0704
     17 N         142.8405  140.7074  170.1624 N.3     1  UNL1       -0.2960
     18 C         142.2500  139.5800  169.3685 C.3     1  UNL1        0.0903
     19 C         142.0143  139.5008  167.8892 C.3     1  UNL1        0.1092
     20 H         142.1213  140.9422  170.8466 H       1  UNL1        0.1233
     21 C         144.3009  139.1133  164.6745 C.1     1  UNL1        0.1047
     22 N         145.7322  138.7319  164.9107 N.1     1  UNL1       -0.1907
     23 C         139.0925  139.0830  159.8263 C.3     1  UNL1        0.1826
     24 C         138.9473  140.2334  158.8746 C.2     1  UNL1        0.1961
     25 O         138.0780  140.0967  157.6598 O.2     1  UNL1       -0.2893
     26 C         139.7736  143.8516  160.2801 C.ar    1  UNL1        0.1388
     27 C         141.1195  144.0945  159.6640 C.ar    1  UNL1        0.0369
     28 C         141.7413  143.0504  158.7848 C.ar    1  UNL1        0.0032
     29 C         141.0173  141.7633  158.5216 C.ar    1  UNL1        0.0031
     30 C         139.6714  141.5204  159.1377 C.ar    1  UNL1        0.0397
     31 C         139.0495  142.5646  160.0169 C.ar    1  UNL1        0.0398
     32 C         139.9791  146.0403  161.6647 C.3     1  UNL1        0.2525
     33 O         139.1518  144.8958  161.1593 O.3     1  UNL1       -0.4714
     34 C         139.4102  140.9639  165.4078 C.3     1  UNL1        0.1332
     35 C         139.4302  142.4083  165.8118 C.2     1  UNL1       -0.0102
     36 C         138.6328  143.4150  165.0367 C.2     1  UNL1       -0.0460
     37 C         138.6528  144.8595  165.4408 C.3     1  UNL1        0.0261
     38 C         137.8155  142.9773  163.8577 C.3     1  UNL1        0.0261
@<TRIPOS>BOND
     1    32    33    1
     2    33    26    1
     3    26    27   ar
     4    27    28   ar
     5    28    29   ar
     6    29    30   ar
     7    30    24    1
     8    24    25    2
     9    24    23    1
    10    23     1    1
    11     1     2   ar
    12     2     3    2
    13     2     4   ar
    14     4     5   ar
    15     5     6   ar
    16     6    21    1
    17    21    22    3
    18     6     7   ar
    19     7    13    1
    20    13    14    1
    21    14    15    1
    22    15    16    1
    23    16    17    1
    24    17    18    1
    25    18    19    1
    26     7     8   ar
    27     8    34    1
    28    34    35    1
    29    35    36    2
    30    36    37    1
    31    36    38    1
    32     5     9   ar
    33     9    10    1
    34     9    11   ar
    35    11    12    2
    36    30    31   ar
    37    31    26   ar
    38    11     1   ar
    39     8     4   ar
    40    19    13    1
    41    17    20    1
@<TRIPOS>MOLECULE
*****
 38 41 0 0 0
SMALL
GASTEIGER

@<TRIPOS>ATOM
      1 N         141.1082  139.6158  161.3569 N.ar    1  UNL1       -0.2399
      2 C         141.8066  140.2552  162.5203 C.ar    1  UNL1        0.2819
      3 O         143.0064  141.1252  162.2889 O.2     1  UNL1       -0.2652
      4 C         141.3052  140.0246  163.9150 C.ar    1  UNL1        0.1349
      5 C         140.1054  139.1546  164.1465 C.ar    1  UNL1        0.0966
      6 C         139.8428  139.1101  165.6226 C.ar    1  UNL1        0.1156
      7 C         140.8803  139.9527  166.3035 C.ar    1  UNL1        0.1240
      8 N         141.7841  140.5179  165.2482 N.ar    1  UNL1       -0.3063
      9 N         139.4070  138.5152  162.9831 N.ar    1  UNL1       -0.2770
     10 C         138.2072  137.6451  163.2145 C.3     1  UNL1        0.1351
     11 C         139.9085  138.7459  161.5883 C.ar    1  UNL1        0.3343
     12 O         139.2100  138.1064  160.4249 O.2     1  UNL1       -0.2462
     13 N         140.9940  140.1887  167.7805 N.pl3   1  UNL1       -0.2925
     14 C         139.9791  141.1224  168.3704 C.3     1  UNL1        0.0936
     15 C         139.8270  141.5578  169.7977 C.3     1  UNL1        0.0385
     16 C         140.6525  141.1670  170.9877 C.3     1  UNL1        0.0704
     17 N         141.8338  140.2445  171.0442 N.3     1  UNL1       -0.2960
     18 C         142.4815  139.4846  169.9247 C.3     1  UNL1        0.0903
     19 C         142.1077  139.4598  168.4722 C.3     1  UNL1        0.1092
     20 H         141.5659  139.5273  171.7183 H       1  UNL1        0.1233
     21 C         138.7369  138.3556  166.2991 C.1     1  UNL1        0.1047
     22 N         137.6309  137.6011  166.9756 N.1     1  UNL1       -0.1907
     23 C         141.6097  139.8465  159.9621 C.3     1  UNL1        0.1826
     24 C         142.4645  138.8121  159.2919 C.2     1  UNL1        0.1961
     25 O         143.8526  138.5459  159.7945 O.2     1  UNL1       -0.2893
     26 C         140.0363  137.5886  156.4012 C.ar    1  UNL1        0.1388
     27 C         140.8653  136.5077  155.7732 C.ar    1  UNL1        0.0369
     28 C         142.2273  136.1949  156.3180 C.ar    1  UNL1        0.0032
     29 C         142.7605  136.9630  157.4909 C.ar    1  UNL1        0.0031
     30 C         141.9315  138.0440  158.1190 C.ar    1  UNL1        0.0397
     31 C         140.5694  138.3567  157.5741 C.ar    1  UNL1        0.0398
     32 C         138.2787  137.4068  154.4964 C.3     1  UNL1        0.2525
     33 O         138.6742  137.9013  155.8563 O.3     1  UNL1       -0.4714
     34 C         142.9603  141.4182  165.4846 C.3     1  UNL1        0.1332
     35 C         142.8501  142.8866  165.1988 C.2     1  UNL1       -0.0102
     36 C         143.9917  143.6123  164.5504 C.2     1  UNL1       -0.0460
     37 C         143.8814  145.0807  164.2646 C.3     1  UNL1        0.0261
     38 C         145.2433  142.8695  164.1877 C.3     1  UNL1        0.0261
@<TRIPOS>BOND
     1    32    33    1
     2    33    26    1
     3    26    27   ar
     4    27    28   ar
     5    28    29   ar
     6    29    30   ar
     7    30    24    1
     8    24    25    2
     9    24    23    1
    10    23     1    1
    11     1     2   ar
    12     2     3    2
    13     2     4   ar
    14     4     5   ar
    15     5     6   ar
    16     6    21    1
    17    21    22    3
    18     6     7   ar
    19     7    13    1
    20    13    14    1
    21    14    15    1
    22    15    16    1
    23    16    17    1
    24    17    18    1
    25    18    19    1
    26     7     8   ar
    27     8    34    1
    28    34    35    1
    29    35    36    2
    30    36    37    1
    31    36    38    1
    32     5     9   ar
    33     9    10    1
    34     9    11   ar
    35    11    12    2
    36    30    31   ar
    37    31    26   ar
    38    11     1   ar
    39     8     4   ar
    40    19    13    1
    41    17    20    1
