@<TRIPOS>MOLECULE
*****
 32 35 0 0 0
SMALL
GASTEIGER

@<TRIPOS>ATOM
      1 O         137.6487  138.5246  162.0111 O.2     1  UNL1       -0.2730
      2 C         138.0372  139.8614  161.4526 C.2     1  UNL1        0.2457
      3 N         138.9456  139.9414  160.2616 N.am    1  UNL1       -0.2767
      4 C         139.2714  141.3252  159.7834 C.3     1  UNL1        0.0949
      5 C         140.1401  141.7364  158.6318 C.3     1  UNL1        0.0388
      6 C         140.8976  140.8652  157.6739 C.3     1  UNL1        0.0744
      7 N         140.9735  139.3677  157.6312 N.3     1  UNL1       -0.2607
      8 C         140.3105  138.3716  158.5358 C.3     1  UNL1        0.0943
      9 C         139.4080  138.6268  159.7064 C.3     1  UNL1        0.1107
     10 C         137.5173  141.1183  162.0851 C.3     1  UNL1        0.1738
     11 N         137.1842  141.1397  163.5474 N.pl3   1  UNL1       -0.3253
     12 H         136.3134  140.8021  163.8589 H       1  UNL1        0.1472
     13 C         138.1778  141.6756  164.5351 C.ar    1  UNL1        0.0488
     14 C         138.4221  143.1527  164.6270 C.ar    1  UNL1        0.0143
     15 C         139.4157  143.6886  165.6148 C.ar    1  UNL1        0.0012
     16 C         140.1649  142.7474  166.5106 C.ar    1  UNL1        0.0000
     17 C         139.9206  141.2702  166.4188 C.ar    1  UNL1        0.0051
     18 C         138.9270  140.7343  165.4311 C.ar    1  UNL1        0.0845
     19 C         138.6827  139.2573  165.3392 C.3     1  UNL1        0.4197
     20 F         138.4384  137.7801  165.2474 F       1  UNL1       -0.1658
     21 F         137.6088  139.3701  166.3804 F       1  UNL1       -0.1658
     22 F         139.7567  139.1443  164.2981 F       1  UNL1       -0.1658
     23 C         141.8248  138.7901  156.5397 C.3     1  UNL1        0.1977
     24 C         142.0802  137.3128  156.4901 C.2     1  UNL1        0.3675
     25 N         141.3057  136.3106  155.6865 N.2     1  UNL1       -0.0337
     26 C         141.9018  134.9568  155.9350 C.2     1  UNL1        0.2318
     27 C         141.5515  133.5947  155.4134 C.2     1  UNL1        0.0498
     28 C         142.3442  132.3982  155.8491 C.2     1  UNL1       -0.0002
     29 C         143.4871  132.5636  156.8064 C.2     1  UNL1       -0.0172
     30 C         143.8374  133.9256  157.3280 C.3     1  UNL1        0.1037
     31 C         143.0447  135.1222  156.8923 C.2     1  UNL1        0.2175
     32 N         143.1549  136.5783  157.2353 N.2     1  UNL1       -0.0375
@<TRIPOS>BOND
     1     1     2    2
     2     2    10    1
     3    10    11    1
     4    11    13    1
     5    13    14   ar
     6    14    15   ar
     7    15    16   ar
     8    16    17   ar
     9    17    18   ar
    10    18    19    1
    11    19    20    1
    12    19    21    1
    13    19    22    1
    14     2     3   am
    15     3     4    1
    16     4     5    1
    17     5     6    1
    18     6     7    1
    19     7    23    1
    20    23    24    1
    21    24    25    2
    22    25    26    1
    23    26    27    2
    24    27    28    1
    25    28    29    2
    26    29    30    1
    27    30    31    1
    28    31    32    2
    29     7     8    1
    30     8     9    1
    31    18    13   ar
    32     9     3    1
    33    32    24    1
    34    31    26    1
    35    11    12    1
@<TRIPOS>MOLECULE
*****
 32 35 0 0 0
SMALL
GASTEIGER

@<TRIPOS>ATOM
      1 O         141.5338  137.6677  165.1644 O.2     1  UNL1       -0.2730
      2 C         140.2401  137.9138  164.4463 C.2     1  UNL1        0.2457
      3 N         140.2365  138.1392  162.9633 N.am    1  UNL1       -0.2767
      4 C         138.8909  138.3758  162.3442 C.3     1  UNL1        0.0949
      5 C         138.5555  138.6298  160.9044 C.3     1  UNL1        0.0388
      6 C         139.4829  138.7100  159.7281 C.3     1  UNL1        0.0744
      7 N         140.9748  138.5559  159.7012 N.3     1  UNL1       -0.2607
      8 C         141.9077  138.2837  160.8438 C.3     1  UNL1        0.0943
      9 C         141.5792  138.0982  162.2956 C.3     1  UNL1        0.1107
     10 C         138.9498  137.9345  165.2111 C.3     1  UNL1        0.1738
     11 N         138.7793  138.8727  166.3689 N.pl3   1  UNL1       -0.3253
     12 H         138.4079  138.5431  167.2190 H       1  UNL1        0.1472
     13 C         139.1747  140.3131  166.2315 C.ar    1  UNL1        0.0488
     14 C         138.6975  141.1130  165.0558 C.ar    1  UNL1        0.0143
     15 C         139.0928  142.5534  164.9183 C.ar    1  UNL1        0.0012
     16 C         139.9654  143.1939  165.9566 C.ar    1  UNL1        0.0000
     17 C         140.4427  142.3941  167.1325 C.ar    1  UNL1        0.0051
     18 C         140.0474  140.9537  167.2699 C.ar    1  UNL1        0.0845
     19 C         140.5246  140.1539  168.4456 C.3     1  UNL1        0.4197
     20 F         141.0019  139.3540  169.6214 F       1  UNL1       -0.1658
     21 F         141.6979  139.6745  167.6434 F       1  UNL1       -0.1658
     22 F         139.3513  140.6332  169.2480 F       1  UNL1       -0.1658
     23 C         141.6189  138.6922  158.3534 C.3     1  UNL1        0.1977
     24 C         141.8776  137.4728  157.5190 C.2     1  UNL1        0.3675
     25 N         140.9878  136.9414  156.4346 N.2     1  UNL1       -0.0337
     26 C         141.6318  135.7109  155.8680 C.2     1  UNL1        0.2318
     27 C         141.2120  134.7694  154.7784 C.2     1  UNL1        0.0498
     28 C         142.0799  133.5988  154.4229 C.2     1  UNL1       -0.0002
     29 C         143.3677  133.3697  155.1571 C.2     1  UNL1       -0.0172
     30 C         143.7876  134.3111  156.2468 C.3     1  UNL1        0.1037
     31 C         142.9196  135.4817  156.6022 C.2     1  UNL1        0.2175
     32 N         143.0715  136.5706  157.6226 N.2     1  UNL1       -0.0375
@<TRIPOS>BOND
     1     1     2    2
     2     2    10    1
     3    10    11    1
     4    11    13    1
     5    13    14   ar
     6    14    15   ar
     7    15    16   ar
     8    16    17   ar
     9    17    18   ar
    10    18    19    1
    11    19    20    1
    12    19    21    1
    13    19    22    1
    14     2     3   am
    15     3     4    1
    16     4     5    1
    17     5     6    1
    18     6     7    1
    19     7    23    1
    20    23    24    1
    21    24    25    2
    22    25    26    1
    23    26    27    2
    24    27    28    1
    25    28    29    2
    26    29    30    1
    27    30    31    1
    28    31    32    2
    29     7     8    1
    30     8     9    1
    31    18    13   ar
    32     9     3    1
    33    32    24    1
    34    31    26    1
    35    11    12    1
@<TRIPOS>MOLECULE
*****
 32 35 0 0 0
SMALL
GASTEIGER

@<TRIPOS>ATOM
      1 O         144.0825  142.3576  165.5802 O.2     1  UNL1       -0.2730
      2 C         142.6320  142.5129  165.9291 C.2     1  UNL1        0.2457
      3 N         141.7204  143.2836  165.0209 N.am    1  UNL1       -0.2767
      4 C         140.2900  143.3787  165.4623 C.3     1  UNL1        0.0949
      5 C         139.1457  144.0710  164.7832 C.3     1  UNL1        0.0388
      6 C         139.1491  144.8392  163.4948 C.3     1  UNL1        0.0744
      7 N         140.2978  145.1048  162.5673 N.3     1  UNL1       -0.2607
      8 C         141.7267  144.6678  162.6992 C.3     1  UNL1        0.0943
      9 C         142.3598  143.8573  163.7912 C.3     1  UNL1        0.1107
     10 C         142.0930  141.8975  167.1865 C.3     1  UNL1        0.1738
     11 N         142.1506  140.4110  167.3784 N.pl3   1  UNL1       -0.3253
     12 H         142.6764  140.0302  168.1185 H       1  UNL1        0.1472
     13 C         141.4071  139.5047  166.4425 C.ar    1  UNL1        0.0488
     14 C         139.9086  139.4515  166.4822 C.ar    1  UNL1        0.0143
     15 C         139.1652  138.5452  165.5464 C.ar    1  UNL1        0.0012
     16 C         139.9202  137.6921  164.5708 C.ar    1  UNL1        0.0000
     17 C         141.4188  137.7451  164.5310 C.ar    1  UNL1        0.0051
     18 C         142.1622  138.6515  165.4668 C.ar    1  UNL1        0.0845
     19 C         143.6607  138.7046  165.4270 C.3     1  UNL1        0.4197
     20 F         145.1593  138.7577  165.3872 F       1  UNL1       -0.1658
     21 F         143.5965  139.6470  164.2618 F       1  UNL1       -0.1658
     22 F         143.7251  137.7622  166.5923 F       1  UNL1       -0.1658
     23 C         139.9749  145.9144  161.3466 C.3     1  UNL1        0.1977
     24 C         140.3078  145.3825  159.9842 C.2     1  UNL1        0.3675
     25 N         139.6000  144.2650  159.2768 N.2     1  UNL1       -0.0337
     26 C         140.2617  144.0665  157.9453 C.2     1  UNL1        0.2318
     27 C         139.9916  143.1085  156.8232 C.2     1  UNL1        0.0498
     28 C         140.8382  143.1452  155.5856 C.2     1  UNL1       -0.0002
     29 C         141.9549  144.1400  155.4700 C.2     1  UNL1       -0.0172
     30 C         142.2250  145.0980  156.5921 C.3     1  UNL1        0.1037
     31 C         141.3784  145.0613  157.8298 C.2     1  UNL1        0.2175
     32 N         141.4069  145.8746  159.0899 N.2     1  UNL1       -0.0375
@<TRIPOS>BOND
     1     1     2    2
     2     2    10    1
     3    10    11    1
     4    11    13    1
     5    13    14   ar
     6    14    15   ar
     7    15    16   ar
     8    16    17   ar
     9    17    18   ar
    10    18    19    1
    11    19    20    1
    12    19    21    1
    13    19    22    1
    14     2     3   am
    15     3     4    1
    16     4     5    1
    17     5     6    1
    18     6     7    1
    19     7    23    1
    20    23    24    1
    21    24    25    2
    22    25    26    1
    23    26    27    2
    24    27    28    1
    25    28    29    2
    26    29    30    1
    27    30    31    1
    28    31    32    2
    29     7     8    1
    30     8     9    1
    31    18    13   ar
    32     9     3    1
    33    32    24    1
    34    31    26    1
    35    11    12    1
@<TRIPOS>MOLECULE
*****
 32 35 0 0 0
SMALL
GASTEIGER

@<TRIPOS>ATOM
      1 O         141.3933  137.7775  165.2004 O.2     1  UNL1       -0.2730
      2 C         140.0913  137.9987  164.4892 C.2     1  UNL1        0.2457
      3 N         140.0759  138.2280  163.0070 N.am    1  UNL1       -0.2767
      4 C         138.7227  138.4383  162.3950 C.3     1  UNL1        0.0949
      5 C         138.3751  138.6893  160.9575 C.3     1  UNL1        0.0388
      6 C         139.2949  138.7919  159.7770 C.3     1  UNL1        0.0744
      7 N         140.7895  138.6689  159.7425 N.3     1  UNL1       -0.2607
      8 C         141.7334  138.4130  160.8798 C.3     1  UNL1        0.0943
      9 C         141.4158  138.2167  162.3327 C.3     1  UNL1        0.1107
     10 C         138.8046  137.9905  165.2603 C.3     1  UNL1        0.1738
     11 N         138.2002  139.2824  165.7243 N.pl3   1  UNL1       -0.3253
     12 H         137.2321  139.4347  165.6306 H       1  UNL1        0.1472
     13 C         139.0708  140.3425  166.3312 C.ar    1  UNL1        0.0488
     14 C         139.6591  140.1394  167.6960 C.ar    1  UNL1        0.0143
     15 C         140.5298  141.1994  168.3028 C.ar    1  UNL1        0.0012
     16 C         140.8121  142.4626  167.5449 C.ar    1  UNL1        0.0000
     17 C         140.2238  142.6659  166.1801 C.ar    1  UNL1        0.0051
     18 C         139.3532  141.6058  165.5733 C.ar    1  UNL1        0.0845
     19 C         138.7649  141.8090  164.2085 C.3     1  UNL1        0.4197
     20 F         138.1766  142.0122  162.8437 F       1  UNL1       -0.1658
     21 F         140.0360  141.3117  163.5865 F       1  UNL1       -0.1658
     22 F         137.4937  142.3064  164.8305 F       1  UNL1       -0.1658
     23 C         141.4241  138.8222  158.3920 C.3     1  UNL1        0.1977
     24 C         141.7439  137.6080  157.5715 C.2     1  UNL1        0.3675
     25 N         140.8954  137.0366  156.4744 N.2     1  UNL1       -0.0337
     26 C         141.5956  135.8274  155.9288 C.2     1  UNL1        0.2318
     27 C         141.2320  134.8639  154.8382 C.2     1  UNL1        0.0498
     28 C         142.1496  133.7244  154.5076 C.2     1  UNL1       -0.0002
     29 C         143.4308  133.5484  155.2675 C.2     1  UNL1       -0.0172
     30 C         143.7944  134.5119  156.3581 C.3     1  UNL1        0.1037
     31 C         142.8768  135.6514  156.6887 C.2     1  UNL1        0.2175
     32 N         142.9685  136.7519  157.7039 N.2     1  UNL1       -0.0375
@<TRIPOS>BOND
     1     1     2    2
     2     2    10    1
     3    10    11    1
     4    11    13    1
     5    13    14   ar
     6    14    15   ar
     7    15    16   ar
     8    16    17   ar
     9    17    18   ar
    10    18    19    1
    11    19    20    1
    12    19    21    1
    13    19    22    1
    14     2     3   am
    15     3     4    1
    16     4     5    1
    17     5     6    1
    18     6     7    1
    19     7    23    1
    20    23    24    1
    21    24    25    2
    22    25    26    1
    23    26    27    2
    24    27    28    1
    25    28    29    2
    26    29    30    1
    27    30    31    1
    28    31    32    2
    29     7     8    1
    30     8     9    1
    31    18    13   ar
    32     9     3    1
    33    32    24    1
    34    31    26    1
    35    11    12    1
@<TRIPOS>MOLECULE
*****
 32 35 0 0 0
SMALL
GASTEIGER

@<TRIPOS>ATOM
      1 O         144.1837  137.6315  161.1944 O.2     1  UNL1       -0.2730
      2 C         142.8469  137.9340  160.5852 C.2     1  UNL1        0.2457
      3 N         141.6393  138.0834  161.4624 N.am    1  UNL1       -0.2767
      4 C         140.3527  138.3852  160.7528 C.3     1  UNL1        0.0949
      5 C         138.9871  138.5893  161.3388 C.3     1  UNL1        0.0388
      6 C         138.5708  138.5420  162.7792 C.3     1  UNL1        0.0744
      7 N         139.4173  138.2789  163.9892 N.3     1  UNL1       -0.2607
      8 C         140.8892  137.9981  164.0578 C.3     1  UNL1        0.0943
      9 C         141.8781  137.9111  162.9332 C.3     1  UNL1        0.1107
     10 C         142.7175  138.0873  159.0986 C.3     1  UNL1        0.1738
     11 N         142.7833  136.8795  158.2116 N.pl3   1  UNL1       -0.3253
     12 H         143.4261  136.1598  158.4069 H       1  UNL1        0.1472
     13 C         141.8699  136.7683  157.0270 C.ar    1  UNL1        0.0488
     14 C         140.7202  137.7195  156.8745 C.ar    1  UNL1        0.0143
     15 C         139.8068  137.6082  155.6899 C.ar    1  UNL1        0.0012
     16 C         140.0430  136.5458  154.6578 C.ar    1  UNL1        0.0000
     17 C         141.1928  135.5945  154.8103 C.ar    1  UNL1        0.0051
     18 C         142.1062  135.7057  155.9949 C.ar    1  UNL1        0.0845
     19 C         143.2559  134.7545  156.1474 C.3     1  UNL1        0.4197
     20 F         144.4056  133.8032  156.2998 F       1  UNL1       -0.1658
     21 F         144.1716  135.7597  155.5141 F       1  UNL1       -0.1658
     22 F         142.3402  133.7492  156.7806 F       1  UNL1       -0.1658
     23 C         138.6967  138.2992  165.3046 C.3     1  UNL1        0.1977
     24 C         139.0646  139.3145  166.3457 C.2     1  UNL1        0.3675
     25 N         139.7291  140.6353  166.0932 N.2     1  UNL1       -0.0337
     26 C         139.9078  141.3243  167.4136 C.2     1  UNL1        0.2318
     27 C         140.5034  142.6510  167.7809 C.2     1  UNL1        0.0498
     28 C         140.5450  143.0827  169.2168 C.2     1  UNL1       -0.0002
     29 C         139.9909  142.1876  170.2854 C.2     1  UNL1       -0.0172
     30 C         139.3952  140.8609  169.9181 C.3     1  UNL1        0.1037
     31 C         139.3537  140.4292  168.4821 C.2     1  UNL1        0.2175
     32 N         138.8325  139.1871  167.8222 N.2     1  UNL1       -0.0375
@<TRIPOS>BOND
     1     1     2    2
     2     2    10    1
     3    10    11    1
     4    11    13    1
     5    13    14   ar
     6    14    15   ar
     7    15    16   ar
     8    16    17   ar
     9    17    18   ar
    10    18    19    1
    11    19    20    1
    12    19    21    1
    13    19    22    1
    14     2     3   am
    15     3     4    1
    16     4     5    1
    17     5     6    1
    18     6     7    1
    19     7    23    1
    20    23    24    1
    21    24    25    2
    22    25    26    1
    23    26    27    2
    24    27    28    1
    25    28    29    2
    26    29    30    1
    27    30    31    1
    28    31    32    2
    29     7     8    1
    30     8     9    1
    31    18    13   ar
    32     9     3    1
    33    32    24    1
    34    31    26    1
    35    11    12    1
@<TRIPOS>MOLECULE
*****
 32 35 0 0 0
SMALL
GASTEIGER

@<TRIPOS>ATOM
      1 O         137.0182  140.0696  160.9421 O.2     1  UNL1       -0.2730
      2 C         138.1993  139.5615  161.7145 C.2     1  UNL1        0.2457
      3 N         139.4264  139.0956  160.9884 N.am    1  UNL1       -0.2767
      4 C         140.5492  138.6072  161.8547 C.3     1  UNL1        0.0949
      5 C         141.8913  138.0823  161.4385 C.3     1  UNL1        0.0388
      6 C         142.4421  137.9163  160.0531 C.3     1  UNL1        0.0744
      7 N         141.7867  138.2342  158.7418 N.3     1  UNL1       -0.2607
      8 C         140.4187  138.7965  158.4920 C.3     1  UNL1        0.0943
      9 C         139.3682  139.1799  159.4918 C.3     1  UNL1        0.1107
     10 C         138.1534  139.5191  163.2133 C.3     1  UNL1        0.1738
     11 N         137.7161  140.7288  163.9847 N.pl3   1  UNL1       -0.3253
     12 H         136.8177  141.1054  163.8420 H       1  UNL1        0.1472
     13 C         138.6475  141.3649  164.9735 C.ar    1  UNL1        0.0488
     14 C         139.3290  140.5228  166.0111 C.ar    1  UNL1        0.0143
     15 C         140.2605  141.1589  166.9999 C.ar    1  UNL1        0.0012
     16 C         140.5105  142.6370  166.9511 C.ar    1  UNL1        0.0000
     17 C         139.8291  143.4792  165.9136 C.ar    1  UNL1        0.0051
     18 C         138.8976  142.8431  164.9248 C.ar    1  UNL1        0.0845
     19 C         138.2162  143.6852  163.8873 C.3     1  UNL1        0.4197
     20 F         137.5347  144.5274  162.8498 F       1  UNL1       -0.1658
     21 F         137.2217  144.1437  164.9124 F       1  UNL1       -0.1658
     22 F         139.2106  143.2269  162.8621 F       1  UNL1       -0.1658
     23 C         142.6078  137.9524  157.5186 C.3     1  UNL1        0.1977
     24 C         142.6447  136.5679  156.9425 C.2     1  UNL1        0.3675
     25 N         141.5360  135.8977  156.1866 N.2     1  UNL1       -0.0337
     26 C         142.0028  134.5261  155.7981 C.2     1  UNL1        0.2318
     27 C         141.3361  133.4159  155.0413 C.2     1  UNL1        0.0498
     28 C         142.0666  132.1282  154.8004 C.2     1  UNL1       -0.0002
     29 C         143.4639  131.9508  155.3162 C.2     1  UNL1       -0.0172
     30 C         144.1306  133.0610  156.0730 C.3     1  UNL1        0.1037
     31 C         143.4001  134.3487  156.3140 C.2     1  UNL1        0.2175
     32 N         143.7968  135.6106  157.0213 N.2     1  UNL1       -0.0375
@<TRIPOS>BOND
     1     1     2    2
     2     2    10    1
     3    10    11    1
     4    11    13    1
     5    13    14   ar
     6    14    15   ar
     7    15    16   ar
     8    16    17   ar
     9    17    18   ar
    10    18    19    1
    11    19    20    1
    12    19    21    1
    13    19    22    1
    14     2     3   am
    15     3     4    1
    16     4     5    1
    17     5     6    1
    18     6     7    1
    19     7    23    1
    20    23    24    1
    21    24    25    2
    22    25    26    1
    23    26    27    2
    24    27    28    1
    25    28    29    2
    26    29    30    1
    27    30    31    1
    28    31    32    2
    29     7     8    1
    30     8     9    1
    31    18    13   ar
    32     9     3    1
    33    32    24    1
    34    31    26    1
    35    11    12    1
@<TRIPOS>MOLECULE
*****
 32 35 0 0 0
SMALL
GASTEIGER

@<TRIPOS>ATOM
      1 O         137.9575  139.5873  162.5829 O.2     1  UNL1       -0.2730
      2 C         139.3074  139.1038  163.0231 C.2     1  UNL1        0.2457
      3 N         140.3326  138.7094  162.0017 N.am    1  UNL1       -0.2767
      4 C         141.6486  138.2404  162.5478 C.3     1  UNL1        0.0949
      5 C         142.8632  137.7824  161.7962 C.3     1  UNL1        0.0388
      6 C         143.0620  137.6802  160.3129 C.3     1  UNL1        0.0744
      7 N         142.0950  138.0109  159.2148 N.3     1  UNL1       -0.2607
      8 C         140.6906  138.5254  159.3288 C.3     1  UNL1        0.0943
      9 C         139.9063  138.8363  160.5691 C.3     1  UNL1        0.1107
     10 C         139.6322  139.0146  164.4849 C.3     1  UNL1        0.1738
     11 N         140.3240  140.1553  165.1703 N.pl3   1  UNL1       -0.3253
     12 H         140.4959  140.9922  164.6812 H       1  UNL1        0.1472
     13 C         140.7540  140.0209  166.6011 C.ar    1  UNL1        0.0488
     14 C         139.7677  140.2576  167.7061 C.ar    1  UNL1        0.0143
     15 C         140.1977  140.1232  169.1369 C.ar    1  UNL1        0.0012
     16 C         141.6140  139.7520  169.4626 C.ar    1  UNL1        0.0000
     17 C         142.6004  139.5152  168.3576 C.ar    1  UNL1        0.0051
     18 C         142.1704  139.6497  166.9268 C.ar    1  UNL1        0.0845
     19 C         143.1568  139.4129  165.8219 C.3     1  UNL1        0.4197
     20 F         144.1431  139.1761  164.7169 F       1  UNL1       -0.1658
     21 F         142.8064  137.9544  165.8215 F       1  UNL1       -0.1658
     22 F         143.5073  140.8714  165.8222 F       1  UNL1       -0.1658
     23 C         142.5992  137.7991  157.8181 C.3     1  UNL1        0.1977
     24 C         142.5578  136.4307  157.2052 C.2     1  UNL1        0.3675
     25 N         143.3134  135.2267  157.6844 N.2     1  UNL1       -0.0337
     26 C         142.9761  134.0778  156.7809 C.2     1  UNL1        0.2318
     27 C         143.4222  132.6458  156.7689 C.2     1  UNL1        0.0498
     28 C         142.9043  131.7077  155.7194 C.2     1  UNL1       -0.0002
     29 C         141.9402  132.2016  154.6818 C.2     1  UNL1       -0.0172
     30 C         141.4941  133.6336  154.6937 C.3     1  UNL1        0.1037
     31 C         142.0120  134.5717  155.7433 C.2     1  UNL1        0.2175
     32 N         141.7535  136.0258  156.0055 N.2     1  UNL1       -0.0375
@<TRIPOS>BOND
     1     1     2    2
     2     2    10    1
     3    10    11    1
     4    11    13    1
     5    13    14   ar
     6    14    15   ar
     7    15    16   ar
     8    16    17   ar
     9    17    18   ar
    10    18    19    1
    11    19    20    1
    12    19    21    1
    13    19    22    1
    14     2     3   am
    15     3     4    1
    16     4     5    1
    17     5     6    1
    18     6     7    1
    19     7    23    1
    20    23    24    1
    21    24    25    2
    22    25    26    1
    23    26    27    2
    24    27    28    1
    25    28    29    2
    26    29    30    1
    27    30    31    1
    28    31    32    2
    29     7     8    1
    30     8     9    1
    31    18    13   ar
    32     9     3    1
    33    32    24    1
    34    31    26    1
    35    11    12    1
@<TRIPOS>MOLECULE
*****
 32 35 0 0 0
SMALL
GASTEIGER

@<TRIPOS>ATOM
      1 O         137.8567  144.3986  162.5456 O.2     1  UNL1       -0.2730
      2 C         138.7652  143.4339  163.2483 C.2     1  UNL1        0.2457
      3 N         140.0940  143.0819  162.6481 N.am    1  UNL1       -0.2767
      4 C         140.9245  142.1087  163.4309 C.3     1  UNL1        0.0949
      5 C         142.2827  141.5629  163.1034 C.3     1  UNL1        0.0388
      6 C         143.1460  141.8556  161.9121 C.3     1  UNL1        0.0744
      7 N         142.8641  142.7665  160.7540 N.3     1  UNL1       -0.2607
      8 C         141.6494  143.6095  160.5014 C.3     1  UNL1        0.0943
      9 C         140.4166  143.7499  161.3443 C.3     1  UNL1        0.1107
     10 C         138.3448  142.8210  164.5514 C.3     1  UNL1        0.1738
     11 N         137.4566  141.6125  164.5597 N.pl3   1  UNL1       -0.3253
     12 H         136.5433  141.6752  164.9221 H       1  UNL1        0.1472
     13 C         137.9597  140.3082  164.0159 C.ar    1  UNL1        0.0488
     14 C         137.8406  140.0106  162.5506 C.ar    1  UNL1        0.0143
     15 C         138.3437  138.7063  162.0068 C.ar    1  UNL1        0.0012
     16 C         138.9659  137.6996  162.9283 C.ar    1  UNL1        0.0000
     17 C         139.0851  137.9972  164.3937 C.ar    1  UNL1        0.0051
     18 C         138.5820  139.3014  164.9375 C.ar    1  UNL1        0.0845
     19 C         138.7011  139.5990  166.4028 C.3     1  UNL1        0.4197
     20 F         138.8203  139.8965  167.8682 F       1  UNL1       -0.1658
     21 F         137.3970  138.9006  166.6507 F       1  UNL1       -0.1658
     22 F         140.0053  140.2974  166.1549 F       1  UNL1       -0.1658
     23 C         143.9390  142.8446  159.7108 C.3     1  UNL1        0.1977
     24 C         144.0353  141.7861  158.6524 C.2     1  UNL1        0.3675
     25 N         143.1177  140.6099  158.4956 N.2     1  UNL1       -0.0337
     26 C         143.5813  139.8148  157.3112 C.2     1  UNL1        0.2318
     27 C         143.0626  138.5558  156.6822 C.2     1  UNL1        0.0498
     28 C         143.7481  137.9815  155.4779 C.2     1  UNL1       -0.0002
     29 C         144.9523  138.6663  154.9027 C.2     1  UNL1       -0.0172
     30 C         145.4711  139.9253  155.5317 C.3     1  UNL1        0.1037
     31 C         144.7856  140.4996  156.7359 C.2     1  UNL1        0.2175
     32 N         145.0661  141.7179  157.5648 N.2     1  UNL1       -0.0375
@<TRIPOS>BOND
     1     1     2    2
     2     2    10    1
     3    10    11    1
     4    11    13    1
     5    13    14   ar
     6    14    15   ar
     7    15    16   ar
     8    16    17   ar
     9    17    18   ar
    10    18    19    1
    11    19    20    1
    12    19    21    1
    13    19    22    1
    14     2     3   am
    15     3     4    1
    16     4     5    1
    17     5     6    1
    18     6     7    1
    19     7    23    1
    20    23    24    1
    21    24    25    2
    22    25    26    1
    23    26    27    2
    24    27    28    1
    25    28    29    2
    26    29    30    1
    27    30    31    1
    28    31    32    2
    29     7     8    1
    30     8     9    1
    31    18    13   ar
    32     9     3    1
    33    32    24    1
    34    31    26    1
    35    11    12    1
@<TRIPOS>MOLECULE
*****
 32 35 0 0 0
SMALL
GASTEIGER

@<TRIPOS>ATOM
      1 O         137.2512  139.5540  160.6896 O.2     1  UNL1       -0.2730
      2 C         138.4711  139.0654  161.4128 C.2     1  UNL1        0.2457
      3 N         139.7083  138.7111  160.6422 N.am    1  UNL1       -0.2767
      4 C         140.8706  138.2333  161.4611 C.3     1  UNL1        0.0949
      5 C         142.2313  137.8079  160.9945 C.3     1  UNL1        0.0388
      6 C         142.7657  137.7552  159.5939 C.3     1  UNL1        0.0744
      7 N         142.0713  138.1149  158.3138 N.3     1  UNL1       -0.2607
      8 C         140.6711  138.6162  158.1183 C.3     1  UNL1        0.0943
      9 C         139.6194  138.8815  159.1545 C.3     1  UNL1        0.1107
     10 C         138.4539  138.9310  162.9067 C.3     1  UNL1        0.1738
     11 N         137.8829  140.0306  163.7521 N.pl3   1  UNL1       -0.3253
     12 H         136.9815  140.3788  163.5638 H       1  UNL1        0.1472
     13 C         138.6854  140.5998  164.8843 C.ar    1  UNL1        0.0488
     14 C         139.2017  142.0059  164.8053 C.ar    1  UNL1        0.0143
     15 C         140.0042  142.5751  165.9375 C.ar    1  UNL1        0.0012
     16 C         140.2904  141.7382  167.1489 C.ar    1  UNL1        0.0000
     17 C         139.7741  140.3320  167.2281 C.ar    1  UNL1        0.0051
     18 C         138.9716  139.7628  166.0958 C.ar    1  UNL1        0.0845
     19 C         138.4554  138.3567  166.1750 C.3     1  UNL1        0.4197
     20 F         137.9392  136.9505  166.2541 F       1  UNL1       -0.1658
     21 F         139.7053  137.8603  165.5107 F       1  UNL1       -0.1658
     22 F         137.2054  138.8530  166.8393 F       1  UNL1       -0.1658
     23 C         142.8846  137.9518  157.0641 C.3     1  UNL1        0.1977
     24 C         142.8457  136.6572  156.3075 C.2     1  UNL1        0.3675
     25 N         142.1807  136.4301  154.9823 N.2     1  UNL1       -0.0337
     26 C         142.3889  134.9949  154.5991 C.2     1  UNL1        0.2318
     27 C         141.9583  134.2037  153.3997 C.2     1  UNL1        0.0498
     28 C         142.3215  132.7526  153.2886 C.2     1  UNL1       -0.0002
     29 C         143.1152  132.0927  154.3770 C.2     1  UNL1       -0.0172
     30 C         143.5458  132.8839  155.5763 C.3     1  UNL1        0.1037
     31 C         143.1827  134.3350  155.6874 C.2     1  UNL1        0.2175
     32 N         143.4650  135.3624  156.7433 N.2     1  UNL1       -0.0375
@<TRIPOS>BOND
     1     1     2    2
     2     2    10    1
     3    10    11    1
     4    11    13    1
     5    13    14   ar
     6    14    15   ar
     7    15    16   ar
     8    16    17   ar
     9    17    18   ar
    10    18    19    1
    11    19    20    1
    12    19    21    1
    13    19    22    1
    14     2     3   am
    15     3     4    1
    16     4     5    1
    17     5     6    1
    18     6     7    1
    19     7    23    1
    20    23    24    1
    21    24    25    2
    22    25    26    1
    23    26    27    2
    24    27    28    1
    25    28    29    2
    26    29    30    1
    27    30    31    1
    28    31    32    2
    29     7     8    1
    30     8     9    1
    31    18    13   ar
    32     9     3    1
    33    32    24    1
    34    31    26    1
    35    11    12    1
