@<TRIPOS>MOLECULE
*****
 34 38 0 0 0
SMALL
GASTEIGER

@<TRIPOS>ATOM
      1 N         142.4588  141.3258  167.1082 N.ar    1  UNL1       -0.2815
      2 C         142.6130  141.9733  168.4524 C.ar    1  UNL1        0.3316
      3 O         143.7499  142.8522  168.8824 O.2     1  UNL1       -0.2463
      4 N         141.4307  141.5876  169.2910 N.ar    1  UNL1       -0.2765
      5 C         141.1777  142.0130  170.7070 C.3     1  UNL1        0.1352
      6 C         140.5458  140.7017  168.4651 C.ar    1  UNL1        0.0989
      7 C         139.2435  140.0214  168.7672 C.ar    1  UNL1        0.1175
      8 N         138.5767  139.1794  167.7202 N.ar    1  UNL1       -0.2422
      9 C         139.2121  139.0176  166.3711 C.ar    1  UNL1        0.0850
     10 C         138.5452  138.1755  165.3241 C.ar    1  UNL1        0.0488
     11 C         139.1806  138.0137  163.9750 C.ar    1  UNL1        0.1416
     12 F         138.5137  137.1717  162.9280 F       1  UNL1       -0.2041
     13 C         140.4829  138.6940  163.6729 C.ar    1  UNL1        0.0291
     14 C         141.1497  139.5361  164.7199 C.ar    1  UNL1        0.0053
     15 C         140.5143  139.6978  166.0690 C.ar    1  UNL1        0.0352
     16 C         141.1812  140.5399  167.1160 C.ar    1  UNL1        0.0826
     17 C         141.1183  138.5323  162.3238 C.ar    1  UNL1        0.0216
     18 C         142.4992  137.9577  162.2092 C.ar    1  UNL1        0.0064
     19 C         143.1346  137.7959  160.8601 C.ar    1  UNL1        0.0577
     20 C         142.3891  138.2087  159.6256 C.ar    1  UNL1        0.2249
     21 N         141.0083  138.7833  159.7402 N.ar    1  UNL1       -0.2101
     22 C         140.3729  138.9450  161.0893 C.ar    1  UNL1        0.1021
     23 O         143.0245  138.0470  158.2765 O.3     1  UNL1       -0.4587
     24 C         142.3998  137.1412  157.2570 C.3     1  UNL1        0.2244
     25 C         143.2444  136.1411  156.5245 C.3     1  UNL1        0.1202
     26 N         142.9241  134.6786  156.6162 N.3     1  UNL1       -0.2672
     27 C         141.9260  134.0690  155.6770 C.3     1  UNL1        0.0898
     28 C         143.6020  133.8255  157.6472 C.3     1  UNL1        0.0898
     29 C         144.7659  141.6099  164.3313 C.3     1  UNL1        0.1191
     30 C         144.0301  142.5840  165.2029 C.3     1  UNL1        0.0524
     31 C         143.4144  141.4435  165.9580 C.3     1  UNL1        0.0947
     32 C         144.1502  140.4693  165.0863 C.3     1  UNL1        0.0524
     33 C         145.2209  142.1438  161.8297 C.3     1  UNL1        0.1740
     34 O         145.7215  141.7277  163.1811 O.3     1  UNL1       -0.3534
@<TRIPOS>BOND
     1    33    34    1
     2    29    34    1
     3    29    30    1
     4    30    31    1
     5    31     1    1
     6     1     2   ar
     7     2     3    2
     8     2     4   ar
     9     4     5    1
    10     4     6   ar
    11     6     7   ar
    12     7     8   ar
    13     8     9   ar
    14     9    10   ar
    15    10    11   ar
    16    11    12    1
    17    11    13   ar
    18    13    17    1
    19    17    18   ar
    20    18    19   ar
    21    19    20   ar
    22    20    23    1
    23    23    24    1
    24    24    25    1
    25    25    26    1
    26    26    27    1
    27    26    28    1
    28    20    21   ar
    29    21    22   ar
    30    13    14   ar
    31    14    15   ar
    32    15    16   ar
    33    31    32    1
    34    32    29    1
    35    16     1   ar
    36    16     6   ar
    37    15     9   ar
    38    22    17   ar
@<TRIPOS>MOLECULE
*****
 34 38 0 0 0
SMALL
GASTEIGER

@<TRIPOS>ATOM
      1 N         140.0618  139.9566  166.5678 N.ar    1  UNL1       -0.2815
      2 C         139.4014  139.8508  167.9105 C.ar    1  UNL1        0.3316
      3 O         138.1685  139.0571  168.2265 O.2     1  UNL1       -0.2463
      4 N         140.1905  140.6780  168.8815 N.ar    1  UNL1       -0.2765
      5 C         139.8851  140.8569  170.3392 C.3     1  UNL1        0.1352
      6 C         141.3386  141.2951  168.1391 C.ar    1  UNL1        0.0989
      7 C         142.4461  142.2054  168.5804 C.ar    1  UNL1        0.1175
      8 N         143.4740  142.6697  167.5917 N.ar    1  UNL1       -0.2422
      9 C         143.3945  142.2238  166.1617 C.ar    1  UNL1        0.0850
     10 C         144.4226  142.6882  165.1730 C.ar    1  UNL1        0.0488
     11 C         144.3431  142.2423  163.7430 C.ar    1  UNL1        0.1416
     12 F         145.3711  142.7067  162.7543 F       1  UNL1       -0.2041
     13 C         143.2355  141.3320  163.3017 C.ar    1  UNL1        0.0291
     14 C         142.2075  140.8676  164.2904 C.ar    1  UNL1        0.0053
     15 C         142.2870  141.3135  165.7204 C.ar    1  UNL1        0.0352
     16 C         141.2590  140.8492  166.7091 C.ar    1  UNL1        0.0826
     17 C         143.1560  140.8861  161.8718 C.ar    1  UNL1        0.0216
     18 C         142.1108  141.4628  160.9633 C.ar    1  UNL1        0.0064
     19 C         142.0313  141.0169  159.5334 C.ar    1  UNL1        0.0577
     20 C         142.9969  139.9943  159.0118 C.ar    1  UNL1        0.2249
     21 N         144.0420  139.4177  159.9202 N.ar    1  UNL1       -0.2101
     22 C         144.1215  139.8636  161.3502 C.ar    1  UNL1        0.1021
     23 O         142.9174  139.5484  157.5818 O.3     1  UNL1       -0.4587
     24 C         142.1158  138.3337  157.2185 C.3     1  UNL1        0.2244
     25 C         142.6956  136.9649  157.4189 C.3     1  UNL1        0.1202
     26 N         143.5948  136.3711  156.3754 N.3     1  UNL1       -0.2672
     27 C         143.8009  134.8864  156.3198 C.3     1  UNL1        0.0898
     28 C         144.2879  137.2621  155.3875 C.3     1  UNL1        0.0898
     29 C         138.9594  138.3407  163.5202 C.3     1  UNL1        0.1191
     30 C         139.9074  137.9843  164.6266 C.3     1  UNL1        0.0524
     31 C         139.6052  139.2872  165.3055 C.3     1  UNL1        0.0947
     32 C         138.6571  139.6437  164.1990 C.3     1  UNL1        0.0524
     33 C         139.0870  138.0807  160.9383 C.3     1  UNL1        0.1740
     34 O         138.5028  137.6714  162.2579 O.3     1  UNL1       -0.3534
@<TRIPOS>BOND
     1    33    34    1
     2    29    34    1
     3    29    30    1
     4    30    31    1
     5    31     1    1
     6     1     2   ar
     7     2     3    2
     8     2     4   ar
     9     4     5    1
    10     4     6   ar
    11     6     7   ar
    12     7     8   ar
    13     8     9   ar
    14     9    10   ar
    15    10    11   ar
    16    11    12    1
    17    11    13   ar
    18    13    17    1
    19    17    18   ar
    20    18    19   ar
    21    19    20   ar
    22    20    23    1
    23    23    24    1
    24    24    25    1
    25    25    26    1
    26    26    27    1
    27    26    28    1
    28    20    21   ar
    29    21    22   ar
    30    13    14   ar
    31    14    15   ar
    32    15    16   ar
    33    31    32    1
    34    32    29    1
    35    16     1   ar
    36    16     6   ar
    37    15     9   ar
    38    22    17   ar
@<TRIPOS>MOLECULE
*****
 34 38 0 0 0
SMALL
GASTEIGER

@<TRIPOS>ATOM
      1 N         142.7925  142.4949  159.9193 N.ar    1  UNL1       -0.2815
      2 C         143.1808  142.6441  158.4781 C.ar    1  UNL1        0.3316
      3 O         144.1822  141.8033  157.7432 O.2     1  UNL1       -0.2463
      4 N         142.3919  143.7819  157.9010 N.ar    1  UNL1       -0.2765
      5 C         142.4658  144.2786  156.4876 C.3     1  UNL1        0.1352
      6 C         141.5160  144.3358  158.9855 C.ar    1  UNL1        0.0989
      7 C         140.5250  145.4617  158.9983 C.ar    1  UNL1        0.1175
      8 N         139.7816  145.7921  160.2585 N.ar    1  UNL1       -0.2422
      9 C         140.0292  144.9967  161.5059 C.ar    1  UNL1        0.0850
     10 C         139.2857  145.3272  162.7661 C.ar    1  UNL1        0.0488
     11 C         139.5333  144.5318  164.0135 C.ar    1  UNL1        0.1416
     12 F         138.7899  144.8622  165.2736 F       1  UNL1       -0.2041
     13 C         140.5244  143.4058  164.0006 C.ar    1  UNL1        0.0291
     14 C         141.2678  143.0754  162.7404 C.ar    1  UNL1        0.0053
     15 C         141.0202  143.8708  161.4931 C.ar    1  UNL1        0.0352
     16 C         141.7636  143.5404  160.2329 C.ar    1  UNL1        0.0826
     17 C         140.7720  142.6104  165.2480 C.ar    1  UNL1        0.0216
     18 C         139.6566  141.8229  165.8691 C.ar    1  UNL1        0.0064
     19 C         139.9042  141.0274  167.1165 C.ar    1  UNL1        0.0577
     20 C         141.2673  141.0195  167.7428 C.ar    1  UNL1        0.2249
     21 N         142.3826  141.8070  167.1216 N.ar    1  UNL1       -0.2101
     22 C         142.1350  142.6024  165.8742 C.ar    1  UNL1        0.1021
     23 O         141.5149  140.2241  168.9901 O.3     1  UNL1       -0.4587
     24 C         140.6482  140.4320  170.1967 C.3     1  UNL1        0.2244
     25 C         140.8872  141.6067  171.0983 C.3     1  UNL1        0.1202
     26 N         141.4284  142.8870  170.5346 N.3     1  UNL1       -0.2672
     27 C         140.4909  143.9153  169.9743 C.3     1  UNL1        0.0898
     28 C         142.9071  143.1391  170.5311 C.3     1  UNL1        0.0898
     29 C         144.1082  140.0413  162.2351 C.3     1  UNL1        0.1191
     30 C         142.9156  140.1111  161.3280 C.3     1  UNL1        0.0524
     31 C         143.3374  141.4785  160.8785 C.3     1  UNL1        0.0947
     32 C         144.5301  141.4087  161.7857 C.3     1  UNL1        0.0524
     33 C         144.4669  139.2118  164.6710 C.3     1  UNL1        0.1740
     34 O         144.6531  139.0249  163.1944 O.3     1  UNL1       -0.3534
@<TRIPOS>BOND
     1    33    34    1
     2    29    34    1
     3    29    30    1
     4    30    31    1
     5    31     1    1
     6     1     2   ar
     7     2     3    2
     8     2     4   ar
     9     4     5    1
    10     4     6   ar
    11     6     7   ar
    12     7     8   ar
    13     8     9   ar
    14     9    10   ar
    15    10    11   ar
    16    11    12    1
    17    11    13   ar
    18    13    17    1
    19    17    18   ar
    20    18    19   ar
    21    19    20   ar
    22    20    23    1
    23    23    24    1
    24    24    25    1
    25    25    26    1
    26    26    27    1
    27    26    28    1
    28    20    21   ar
    29    21    22   ar
    30    13    14   ar
    31    14    15   ar
    32    15    16   ar
    33    31    32    1
    34    32    29    1
    35    16     1   ar
    36    16     6   ar
    37    15     9   ar
    38    22    17   ar
@<TRIPOS>MOLECULE
*****
 34 38 0 0 0
SMALL
GASTEIGER

@<TRIPOS>ATOM
      1 N         140.0288  139.9223  166.5625 N.ar    1  UNL1       -0.2815
      2 C         139.3398  139.8128  167.8903 C.ar    1  UNL1        0.3316
      3 O         138.1036  139.0137  168.1789 O.2     1  UNL1       -0.2463
      4 N         140.1040  140.6427  168.8789 N.ar    1  UNL1       -0.2765
      5 C         139.7662  140.8191  170.3297 C.3     1  UNL1        0.1352
      6 C         141.2653  141.2651  168.1620 C.ar    1  UNL1        0.0989
      7 C         142.3591  142.1797  168.6279 C.ar    1  UNL1        0.1175
      8 N         143.4064  142.6491  167.6622 N.ar    1  UNL1       -0.2422
      9 C         143.3600  142.2039  166.2305 C.ar    1  UNL1        0.0850
     10 C         144.4074  142.6734  165.2647 C.ar    1  UNL1        0.0488
     11 C         144.3609  142.2282  163.8331 C.ar    1  UNL1        0.1416
     12 F         145.4082  142.6976  162.8673 F       1  UNL1       -0.2041
     13 C         143.2671  141.3135  163.3672 C.ar    1  UNL1        0.0291
     14 C         142.2198  140.8441  164.3329 C.ar    1  UNL1        0.0053
     15 C         142.2662  141.2893  165.7646 C.ar    1  UNL1        0.0352
     16 C         141.2189  140.8199  166.7304 C.ar    1  UNL1        0.0826
     17 C         143.2206  140.8683  161.9355 C.ar    1  UNL1        0.0216
     18 C         142.2783  141.5305  160.9744 C.ar    1  UNL1        0.0064
     19 C         142.2318  141.0853  159.5427 C.ar    1  UNL1        0.0577
     20 C         143.1277  139.9779  159.0722 C.ar    1  UNL1        0.2249
     21 N         144.0700  139.3159  160.0333 N.ar    1  UNL1       -0.2101
     22 C         144.1164  139.7611  161.4650 C.ar    1  UNL1        0.1021
     23 O         143.0813  139.5327  157.6406 O.3     1  UNL1       -0.4587
     24 C         144.0922  140.0507  156.6609 C.3     1  UNL1        0.2244
     25 C         144.9990  141.1818  157.0463 C.3     1  UNL1        0.1202
     26 N         146.1048  141.6038  156.1249 N.3     1  UNL1       -0.2672
     27 C         147.2009  142.4957  156.6280 C.3     1  UNL1        0.0898
     28 C         146.1146  141.1340  154.7004 C.3     1  UNL1        0.0898
     29 C         138.9999  138.3041  163.4905 C.3     1  UNL1        0.1191
     30 C         139.8984  137.9360  164.6339 C.3     1  UNL1        0.0524
     31 C         139.6027  139.2520  165.2900 C.3     1  UNL1        0.0947
     32 C         138.7042  139.6202  164.1466 C.3     1  UNL1        0.0524
     33 C         139.1265  138.0992  160.9036 C.3     1  UNL1        0.1740
     34 O         138.5738  137.6338  162.2181 O.3     1  UNL1       -0.3534
@<TRIPOS>BOND
     1    33    34    1
     2    29    34    1
     3    29    30    1
     4    30    31    1
     5    31     1    1
     6     1     2   ar
     7     2     3    2
     8     2     4   ar
     9     4     5    1
    10     4     6   ar
    11     6     7   ar
    12     7     8   ar
    13     8     9   ar
    14     9    10   ar
    15    10    11   ar
    16    11    12    1
    17    11    13   ar
    18    13    17    1
    19    17    18   ar
    20    18    19   ar
    21    19    20   ar
    22    20    23    1
    23    23    24    1
    24    24    25    1
    25    25    26    1
    26    26    27    1
    27    26    28    1
    28    20    21   ar
    29    21    22   ar
    30    13    14   ar
    31    14    15   ar
    32    15    16   ar
    33    31    32    1
    34    32    29    1
    35    16     1   ar
    36    16     6   ar
    37    15     9   ar
    38    22    17   ar
@<TRIPOS>MOLECULE
*****
 34 38 0 0 0
SMALL
GASTEIGER

@<TRIPOS>ATOM
      1 N         142.4391  141.3448  167.1116 N.ar    1  UNL1       -0.2815
      2 C         142.5906  141.9939  168.4554 C.ar    1  UNL1        0.3316
      3 O         143.7231  142.8791  168.8843 O.2     1  UNL1       -0.2463
      4 N         141.4109  141.6022  169.2950 N.ar    1  UNL1       -0.2765
      5 C         141.1565  142.0270  170.7109 C.3     1  UNL1        0.1352
      6 C         140.5303  140.7111  168.4701 C.ar    1  UNL1        0.0989
      7 C         139.2319  140.0240  168.7734 C.ar    1  UNL1        0.1175
      8 N         138.5689  139.1779  167.7273 N.ar    1  UNL1       -0.2422
      9 C         139.2044  139.0188  166.3779 C.ar    1  UNL1        0.0850
     10 C         138.5413  138.1726  165.3317 C.ar    1  UNL1        0.0488
     11 C         139.1767  138.0135  163.9823 C.ar    1  UNL1        0.1416
     12 F         138.5138  137.1674  162.9361 F       1  UNL1       -0.2041
     13 C         140.4752  138.7007  163.6790 C.ar    1  UNL1        0.0291
     14 C         141.1382  139.5468  164.7252 C.ar    1  UNL1        0.0053
     15 C         140.5027  139.7059  166.0746 C.ar    1  UNL1        0.0352
     16 C         141.1657  140.5520  167.1207 C.ar    1  UNL1        0.0826
     17 C         141.1106  138.5416  162.3296 C.ar    1  UNL1        0.0216
     18 C         142.5066  138.0043  162.2166 C.ar    1  UNL1        0.0064
     19 C         143.1421  137.8453  160.8672 C.ar    1  UNL1        0.0577
     20 C         142.3815  138.2234  159.6308 C.ar    1  UNL1        0.2249
     21 N         140.9856  138.7606  159.7438 N.ar    1  UNL1       -0.2101
     22 C         140.3502  138.9197  161.0932 C.ar    1  UNL1        0.1021
     23 O         143.0169  138.0644  158.2814 O.3     1  UNL1       -0.4587
     24 C         142.7373  136.8405  157.4603 C.3     1  UNL1        0.2244
     25 C         142.1438  136.9766  156.0894 C.3     1  UNL1        0.1202
     26 N         140.9475  137.8554  155.8739 N.3     1  UNL1       -0.2672
     27 C         139.6575  137.5518  156.5767 C.3     1  UNL1        0.0898
     28 C         141.0410  139.0378  154.9556 C.3     1  UNL1        0.0898
     29 C         144.7429  141.6401  164.3332 C.3     1  UNL1        0.1191
     30 C         144.1468  140.4969  165.1000 C.3     1  UNL1        0.0524
     31 C         143.3933  141.4671  165.9608 C.3     1  UNL1        0.0947
     32 C         143.9894  142.6103  165.1940 C.3     1  UNL1        0.0524
     33 C         145.1933  142.1736  161.8307 C.3     1  UNL1        0.1740
     34 O         145.6971  141.7623  163.1824 O.3     1  UNL1       -0.3534
@<TRIPOS>BOND
     1    33    34    1
     2    29    34    1
     3    29    30    1
     4    30    31    1
     5    31     1    1
     6     1     2   ar
     7     2     3    2
     8     2     4   ar
     9     4     5    1
    10     4     6   ar
    11     6     7   ar
    12     7     8   ar
    13     8     9   ar
    14     9    10   ar
    15    10    11   ar
    16    11    12    1
    17    11    13   ar
    18    13    17    1
    19    17    18   ar
    20    18    19   ar
    21    19    20   ar
    22    20    23    1
    23    23    24    1
    24    24    25    1
    25    25    26    1
    26    26    27    1
    27    26    28    1
    28    20    21   ar
    29    21    22   ar
    30    13    14   ar
    31    14    15   ar
    32    15    16   ar
    33    31    32    1
    34    32    29    1
    35    16     1   ar
    36    16     6   ar
    37    15     9   ar
    38    22    17   ar
@<TRIPOS>MOLECULE
*****
 34 38 0 0 0
SMALL
GASTEIGER

@<TRIPOS>ATOM
      1 N         141.1213  143.4900  160.5130 N.ar    1  UNL1       -0.2815
      2 C         141.0172  144.3449  159.2848 C.ar    1  UNL1        0.3316
      3 O         141.8078  145.5890  159.0070 O.2     1  UNL1       -0.2463
      4 N         139.9838  143.7372  158.3833 N.ar    1  UNL1       -0.2765
      5 C         139.5594  144.2669  157.0457 C.3     1  UNL1        0.1352
      6 C         139.4491  142.5068  159.0543 C.ar    1  UNL1        0.0989
      7 C         138.4130  141.5057  158.6368 C.ar    1  UNL1        0.1175
      8 N         138.0799  140.3519  159.5356 N.ar    1  UNL1       -0.2422
      9 C         138.7830  140.1992  160.8518 C.ar    1  UNL1        0.0850
     10 C         138.4498  139.0453  161.7505 C.ar    1  UNL1        0.0488
     11 C         139.1529  138.8925  163.0667 C.ar    1  UNL1        0.1416
     12 F         138.8198  137.7387  163.9654 F       1  UNL1       -0.2041
     13 C         140.1890  139.8936  163.4842 C.ar    1  UNL1        0.0291
     14 C         140.5221  141.0474  162.5854 C.ar    1  UNL1        0.0053
     15 C         139.8191  141.2002  161.2692 C.ar    1  UNL1        0.0352
     16 C         140.1522  142.3540  160.3705 C.ar    1  UNL1        0.0826
     17 C         140.8921  139.7408  164.8004 C.ar    1  UNL1        0.0216
     18 C         142.2686  139.1469  164.8509 C.ar    1  UNL1        0.0064
     19 C         142.9717  138.9942  166.1671 C.ar    1  UNL1        0.0577
     20 C         142.2982  139.4353  167.4328 C.ar    1  UNL1        0.2249
     21 N         140.9217  140.0291  167.3822 N.ar    1  UNL1       -0.2101
     22 C         140.2187  140.1819  166.0660 C.ar    1  UNL1        0.1021
     23 O         143.0012  139.2825  168.7490 O.3     1  UNL1       -0.4587
     24 C         142.2300  139.4045  170.0298 C.3     1  UNL1        0.2244
     25 C         142.2423  140.6961  170.7924 C.3     1  UNL1        0.1202
     26 N         142.5116  141.9869  170.0773 N.3     1  UNL1       -0.2672
     27 C         143.9232  142.4050  169.7905 C.3     1  UNL1        0.0898
     28 C         141.3691  142.8595  169.6489 C.3     1  UNL1        0.0898
     29 C         143.3252  144.0674  163.3278 C.3     1  UNL1        0.1191
     30 C         143.4616  143.3936  161.9947 C.3     1  UNL1        0.0524
     31 C         142.0342  143.7291  161.6789 C.3     1  UNL1        0.0947
     32 C         141.8977  144.4030  163.0121 C.3     1  UNL1        0.0524
     33 C         144.3062  143.3072  165.6104 C.3     1  UNL1        0.1740
     34 O         144.2381  144.3065  164.4938 O.3     1  UNL1       -0.3534
@<TRIPOS>BOND
     1    33    34    1
     2    29    34    1
     3    29    30    1
     4    30    31    1
     5    31     1    1
     6     1     2   ar
     7     2     3    2
     8     2     4   ar
     9     4     5    1
    10     4     6   ar
    11     6     7   ar
    12     7     8   ar
    13     8     9   ar
    14     9    10   ar
    15    10    11   ar
    16    11    12    1
    17    11    13   ar
    18    13    17    1
    19    17    18   ar
    20    18    19   ar
    21    19    20   ar
    22    20    23    1
    23    23    24    1
    24    24    25    1
    25    25    26    1
    26    26    27    1
    27    26    28    1
    28    20    21   ar
    29    21    22   ar
    30    13    14   ar
    31    14    15   ar
    32    15    16   ar
    33    31    32    1
    34    32    29    1
    35    16     1   ar
    36    16     6   ar
    37    15     9   ar
    38    22    17   ar
@<TRIPOS>MOLECULE
*****
 34 38 0 0 0
SMALL
GASTEIGER

@<TRIPOS>ATOM
      1 N         139.4030  141.1541  161.2888 N.ar    1  UNL1       -0.2815
      2 C         138.6571  141.1218  159.9878 C.ar    1  UNL1        0.3316
      3 O         137.5174  140.2079  159.6474 O.2     1  UNL1       -0.2463
      4 N         139.2511  142.1638  159.0871 N.ar    1  UNL1       -0.2765
      5 C         138.8097  142.4749  157.6876 C.3     1  UNL1        0.1352
      6 C         140.3641  142.8400  159.8313 C.ar    1  UNL1        0.0989
      7 C         141.3042  143.9434  159.4457 C.ar    1  UNL1        0.1175
      8 N         142.3381  144.4228  160.4209 N.ar    1  UNL1       -0.2422
      9 C         142.4320  143.7988  161.7818 C.ar    1  UNL1        0.0850
     10 C         143.4660  144.2782  162.7570 C.ar    1  UNL1        0.0488
     11 C         143.5599  143.6542  164.1178 C.ar    1  UNL1        0.1416
     12 F         144.5939  144.1335  165.0930 F       1  UNL1       -0.2041
     13 C         142.6198  142.5507  164.5034 C.ar    1  UNL1        0.0291
     14 C         141.5858  142.0713  163.5281 C.ar    1  UNL1        0.0053
     15 C         141.4919  142.6954  162.1673 C.ar    1  UNL1        0.0352
     16 C         140.4580  142.2160  161.1921 C.ar    1  UNL1        0.0826
     17 C         142.7136  141.9267  165.8642 C.ar    1  UNL1        0.0216
     18 C         142.9848  142.7836  167.0651 C.ar    1  UNL1        0.0064
     19 C         143.0787  142.1596  168.4259 C.ar    1  UNL1        0.0577
     20 C         142.9014  140.6786  168.5858 C.ar    1  UNL1        0.2249
     21 N         142.6302  139.8218  167.3848 N.ar    1  UNL1       -0.2101
     22 C         142.5363  140.4458  166.0240 C.ar    1  UNL1        0.1021
     23 O         142.9952  140.0546  169.9466 O.3     1  UNL1       -0.4587
     24 C         142.2411  140.6502  171.0984 C.3     1  UNL1        0.2244
     25 C         140.7970  140.3035  171.3090 C.3     1  UNL1        0.1202
     26 N         139.7284  141.0742  170.5921 N.3     1  UNL1       -0.2672
     27 C         138.5252  140.3612  170.0498 C.3     1  UNL1        0.0898
     28 C         139.8629  142.5579  170.4173 C.3     1  UNL1        0.0898
     29 C         138.7684  139.0395  164.1594 C.3     1  UNL1        0.1191
     30 C         138.1340  140.2739  163.5904 C.3     1  UNL1        0.0524
     31 C         139.1401  140.2782  162.4779 C.3     1  UNL1        0.0947
     32 C         139.7745  139.0437  163.0469 C.3     1  UNL1        0.0524
     33 C         138.0504  138.7717  166.6419 C.3     1  UNL1        0.1740
     34 O         138.5055  138.1636  165.3484 O.3     1  UNL1       -0.3534
@<TRIPOS>BOND
     1    33    34    1
     2    29    34    1
     3    29    30    1
     4    30    31    1
     5    31     1    1
     6     1     2   ar
     7     2     3    2
     8     2     4   ar
     9     4     5    1
    10     4     6   ar
    11     6     7   ar
    12     7     8   ar
    13     8     9   ar
    14     9    10   ar
    15    10    11   ar
    16    11    12    1
    17    11    13   ar
    18    13    17    1
    19    17    18   ar
    20    18    19   ar
    21    19    20   ar
    22    20    23    1
    23    23    24    1
    24    24    25    1
    25    25    26    1
    26    26    27    1
    27    26    28    1
    28    20    21   ar
    29    21    22   ar
    30    13    14   ar
    31    14    15   ar
    32    15    16   ar
    33    31    32    1
    34    32    29    1
    35    16     1   ar
    36    16     6   ar
    37    15     9   ar
    38    22    17   ar
@<TRIPOS>MOLECULE
*****
 34 38 0 0 0
SMALL
GASTEIGER

@<TRIPOS>ATOM
      1 N         142.8096  139.7815  165.8558 N.ar    1  UNL1       -0.2815
      2 C         143.1890  138.9372  167.0361 C.ar    1  UNL1        0.3316
      3 O         144.0820  137.7323  167.0077 O.2     1  UNL1       -0.2463
      4 N         142.5188  139.5095  168.2499 N.ar    1  UNL1       -0.2765
      5 C         142.6238  138.9773  169.6484 C.3     1  UNL1        0.1352
      6 C         141.7251  140.7074  167.8197 C.ar    1  UNL1        0.0989
      7 C         140.8619  141.6668  168.5842 C.ar    1  UNL1        0.1175
      8 N         140.1785  142.7943  167.8690 N.ar    1  UNL1       -0.2422
      9 C         140.3582  142.9624  166.3893 C.ar    1  UNL1        0.0850
     10 C         139.6747  144.0900  165.6741 C.ar    1  UNL1        0.0488
     11 C         139.8545  144.2581  164.1944 C.ar    1  UNL1        0.1416
     12 F         139.1710  145.3857  163.4792 F       1  UNL1       -0.2041
     13 C         140.7177  143.2986  163.4299 C.ar    1  UNL1        0.0291
     14 C         141.4011  142.1711  164.1451 C.ar    1  UNL1        0.0053
     15 C         141.2214  142.0030  165.6248 C.ar    1  UNL1        0.0352
     16 C         141.9048  140.8755  166.3400 C.ar    1  UNL1        0.0826
     17 C         140.8974  143.4667  161.9502 C.ar    1  UNL1        0.0216
     18 C         140.2464  142.5042  161.0015 C.ar    1  UNL1        0.0064
     19 C         140.4262  142.6723  159.5219 C.ar    1  UNL1        0.0577
     20 C         141.2568  143.8029  158.9909 C.ar    1  UNL1        0.2249
     21 N         141.9077  144.7654  159.9396 N.ar    1  UNL1       -0.2101
     22 C         141.7279  144.5973  161.4193 C.ar    1  UNL1        0.1021
     23 O         141.4365  143.9710  157.5112 O.3     1  UNL1       -0.4587
     24 C         141.4161  145.3427  156.9043 C.3     1  UNL1        0.2244
     25 C         140.2168  146.2252  157.0854 C.3     1  UNL1        0.1202
     26 N         139.2377  146.3998  155.9626 N.3     1  UNL1       -0.2672
     27 C         138.9634  147.7682  155.4127 C.3     1  UNL1        0.0898
     28 C         138.5328  145.2061  155.3896 C.3     1  UNL1        0.0898
     29 C         143.8884  139.2686  162.4371 C.3     1  UNL1        0.1191
     30 C         142.7201  138.8133  163.2603 C.3     1  UNL1        0.0524
     31 C         143.2564  139.5690  164.4397 C.3     1  UNL1        0.0947
     32 C         144.4248  140.0244  163.6165 C.3     1  UNL1        0.0524
     33 C         143.7092  139.8465  159.9104 C.3     1  UNL1        0.1740
     34 O         144.3353  139.0562  161.0210 O.3     1  UNL1       -0.3534
@<TRIPOS>BOND
     1    33    34    1
     2    29    34    1
     3    29    30    1
     4    30    31    1
     5    31     1    1
     6     1     2   ar
     7     2     3    2
     8     2     4   ar
     9     4     5    1
    10     4     6   ar
    11     6     7   ar
    12     7     8   ar
    13     8     9   ar
    14     9    10   ar
    15    10    11   ar
    16    11    12    1
    17    11    13   ar
    18    13    17    1
    19    17    18   ar
    20    18    19   ar
    21    19    20   ar
    22    20    23    1
    23    23    24    1
    24    24    25    1
    25    25    26    1
    26    26    27    1
    27    26    28    1
    28    20    21   ar
    29    21    22   ar
    30    13    14   ar
    31    14    15   ar
    32    15    16   ar
    33    31    32    1
    34    32    29    1
    35    16     1   ar
    36    16     6   ar
    37    15     9   ar
    38    22    17   ar
@<TRIPOS>MOLECULE
*****
 34 38 0 0 0
SMALL
GASTEIGER

@<TRIPOS>ATOM
      1 N         139.8525  140.2611  159.4335 N.ar    1  UNL1       -0.2815
      2 C         139.4107  139.9269  158.0396 C.ar    1  UNL1        0.3316
      3 O         139.1992  138.5480  157.4884 O.2     1  UNL1       -0.2463
      4 N         139.2175  141.2138  157.2936 N.ar    1  UNL1       -0.2765
      5 C         138.7788  141.3478  155.8654 C.3     1  UNL1        0.1352
      6 C         139.5399  142.3434  158.2264 C.ar    1  UNL1        0.0989
      7 C         139.5268  143.8319  158.0424 C.ar    1  UNL1        0.1175
      8 N         139.9062  144.7317  159.1810 N.ar    1  UNL1       -0.2422
      9 C         140.2987  144.1429  160.5036 C.ar    1  UNL1        0.0850
     10 C         140.6781  145.0427  161.6422 C.ar    1  UNL1        0.0488
     11 C         141.0706  144.4539  162.9648 C.ar    1  UNL1        0.1416
     12 F         141.4501  145.3536  164.1034 F       1  UNL1       -0.2041
     13 C         141.0837  142.9652  163.1488 C.ar    1  UNL1        0.0291
     14 C         140.7043  142.0655  162.0102 C.ar    1  UNL1        0.0053
     15 C         140.3118  142.6543  160.6876 C.ar    1  UNL1        0.0352
     16 C         139.9324  141.7545  159.5490 C.ar    1  UNL1        0.0826
     17 C         141.4762  142.3764  164.4714 C.ar    1  UNL1        0.0216
     18 C         140.5782  142.5407  165.6616 C.ar    1  UNL1        0.0064
     19 C         140.9707  141.9519  166.9842 C.ar    1  UNL1        0.0577
     20 C         142.2612  141.1987  167.1165 C.ar    1  UNL1        0.2249
     21 N         143.1591  141.0345  165.9263 N.ar    1  UNL1       -0.2101
     22 C         142.7666  141.6233  164.6037 C.ar    1  UNL1        0.1021
     23 O         142.6537  140.6099  168.4391 O.3     1  UNL1       -0.4587
     24 C         143.1301  141.5032  169.5460 C.3     1  UNL1        0.2244
     25 C         142.2502  141.7610  170.7331 C.3     1  UNL1        0.1202
     26 N         140.7718  141.5266  170.6358 N.3     1  UNL1       -0.2672
     27 C         140.2304  140.1281  170.6694 C.3     1  UNL1        0.0898
     28 C         139.8348  142.6907  170.5049 C.3     1  UNL1        0.0898
     29 C         140.5958  137.8804  162.0591 C.3     1  UNL1        0.1191
     30 C         141.4151  138.6884  161.0969 C.3     1  UNL1        0.0524
     31 C         140.1604  139.2750  160.5211 C.3     1  UNL1        0.0947
     32 C         139.3411  138.4670  161.4833 C.3     1  UNL1        0.0524
     33 C         141.2448  137.3795  164.5245 C.3     1  UNL1        0.1740
     34 O         140.9038  136.8943  163.1467 O.3     1  UNL1       -0.3534
@<TRIPOS>BOND
     1    33    34    1
     2    29    34    1
     3    29    30    1
     4    30    31    1
     5    31     1    1
     6     1     2   ar
     7     2     3    2
     8     2     4   ar
     9     4     5    1
    10     4     6   ar
    11     6     7   ar
    12     7     8   ar
    13     8     9   ar
    14     9    10   ar
    15    10    11   ar
    16    11    12    1
    17    11    13   ar
    18    13    17    1
    19    17    18   ar
    20    18    19   ar
    21    19    20   ar
    22    20    23    1
    23    23    24    1
    24    24    25    1
    25    25    26    1
    26    26    27    1
    27    26    28    1
    28    20    21   ar
    29    21    22   ar
    30    13    14   ar
    31    14    15   ar
    32    15    16   ar
    33    31    32    1
    34    32    29    1
    35    16     1   ar
    36    16     6   ar
    37    15     9   ar
    38    22    17   ar
