@<TRIPOS>MOLECULE
*****
 26 28 0 0 0
SMALL
GASTEIGER

@<TRIPOS>ATOM
      1 N         137.8855  140.3996  161.9837 N.3     1  UNL1       -0.2700
      2 C         137.6809  140.4963  163.4666 C.3     1  UNL1        0.0897
      3 C         137.7601  141.8296  164.1493 C.3     1  UNL1        0.0897
      4 N         138.0438  143.0662  163.3490 N.3     1  UNL1       -0.2700
      5 C         138.2483  142.9695  161.8662 C.3     1  UNL1        0.0897
      6 C         138.1691  141.6362  161.1836 C.3     1  UNL1        0.0897
      7 C         137.8063  139.0663  161.3010 C.3     1  UNL1        0.0769
      8 C         139.0270  138.2000  161.2035 C.3     1  UNL1        0.0437
      9 C         142.0271  138.1538  164.5571 C.ar    1  UNL1        0.0684
     10 C         142.3079  138.9392  163.3104 C.ar    1  UNL1        0.0100
     11 C         141.3078  138.9546  162.1925 C.ar    1  UNL1       -0.0035
     12 C         140.0270  138.1846  162.3213 C.ar    1  UNL1       -0.0207
     13 C         139.7463  137.3993  163.5681 C.ar    1  UNL1       -0.0035
     14 C         140.7463  137.3839  164.6859 C.ar    1  UNL1        0.0100
     15 N         144.0272  138.1230  166.7929 N.1     1  UNL1       -0.1908
     16 C         143.0272  138.1384  165.6750 C.1     1  UNL1        0.1004
     17 C         138.1229  144.3995  164.0317 C.3     1  UNL1        0.0769
     18 C         139.3259  144.7496  164.8565 C.3     1  UNL1        0.0437
     19 C         140.6590  144.1422  164.5339 C.ar    1  UNL1       -0.0207
     20 C         141.5222  144.7505  163.4686 C.ar    1  UNL1       -0.0035
     21 C         142.8553  144.1432  163.1459 C.ar    1  UNL1        0.0100
     22 C         143.3251  142.9276  163.8885 C.ar    1  UNL1        0.0684
     23 C         142.4619  142.3192  164.9539 C.ar    1  UNL1        0.0100
     24 C         141.1288  142.9266  165.2765 C.ar    1  UNL1       -0.0035
     25 C         144.6582  142.3202  163.5659 C.1     1  UNL1        0.1004
     26 N         145.9912  141.7129  163.2432 N.1     1  UNL1       -0.1908
@<TRIPOS>BOND
     1    15    16    3
     2    16     9    1
     3     9    10   ar
     4    10    11   ar
     5    11    12   ar
     6    12     8    1
     7     8     7    1
     8     7     1    1
     9     1     2    1
    10     2     3    1
    11     3     4    1
    12     4    17    1
    13    17    18    1
    14    18    19    1
    15    19    20   ar
    16    20    21   ar
    17    21    22   ar
    18    22    25    1
    19    25    26    3
    20    22    23   ar
    21    23    24   ar
    22     4     5    1
    23     5     6    1
    24    12    13   ar
    25    13    14   ar
    26    14     9   ar
    27     6     1    1
    28    24    19   ar
@<TRIPOS>MOLECULE
*****
 26 28 0 0 0
SMALL
GASTEIGER

@<TRIPOS>ATOM
      1 N         138.0122  143.0606  163.5041 N.3     1  UNL1       -0.2700
      2 C         137.7814  141.7817  164.2534 C.3     1  UNL1        0.0897
      3 C         137.7194  140.4790  163.5123 C.3     1  UNL1        0.0897
      4 N         137.8881  140.4552  162.0220 N.3     1  UNL1       -0.2700
      5 C         138.1189  141.7340  161.2728 C.3     1  UNL1        0.0897
      6 C         138.1809  143.0367  162.0138 C.3     1  UNL1        0.0897
      7 C         138.0742  144.3633  164.2451 C.3     1  UNL1        0.0769
      8 C         139.2901  144.7099  165.0522 C.3     1  UNL1        0.0437
      9 C         143.2805  142.9213  163.9902 C.ar    1  UNL1        0.0684
     10 C         142.4498  142.3087  165.0785 C.ar    1  UNL1        0.0100
     11 C         141.1197  142.9049  165.4325 C.ar    1  UNL1       -0.0035
     12 C         140.6203  144.1137  164.6982 C.ar    1  UNL1       -0.0207
     13 C         141.4510  144.7263  163.6098 C.ar    1  UNL1       -0.0035
     14 C         142.7811  144.1302  163.2558 C.ar    1  UNL1        0.0100
     15 N         145.9408  141.7290  163.2821 N.1     1  UNL1       -0.1908
     16 C         144.6107  142.3252  163.6361 C.1     1  UNL1        0.1004
     17 C         137.8261  139.1525  161.2809 C.3     1  UNL1        0.0769
     18 C         139.0499  138.2918  161.1735 C.3     1  UNL1        0.0437
     19 C         140.0441  138.2581  162.2962 C.ar    1  UNL1       -0.0207
     20 C         139.7848  137.4049  163.5023 C.ar    1  UNL1       -0.0035
     21 C         140.7790  137.3713  164.6250 C.ar    1  UNL1        0.0100
     22 C         142.0324  138.1909  164.5416 C.ar    1  UNL1        0.0684
     23 C         142.2918  139.0442  163.3355 C.ar    1  UNL1        0.0100
     24 C         141.2976  139.0779  162.2128 C.ar    1  UNL1       -0.0035
     25 C         143.0266  138.1573  165.6643 C.1     1  UNL1        0.1004
     26 N         144.0208  138.1237  166.7870 N.1     1  UNL1       -0.1908
@<TRIPOS>BOND
     1    15    16    3
     2    16     9    1
     3     9    10   ar
     4    10    11   ar
     5    11    12   ar
     6    12     8    1
     7     8     7    1
     8     7     1    1
     9     1     2    1
    10     2     3    1
    11     3     4    1
    12     4    17    1
    13    17    18    1
    14    18    19    1
    15    19    20   ar
    16    20    21   ar
    17    21    22   ar
    18    22    25    1
    19    25    26    3
    20    22    23   ar
    21    23    24   ar
    22     4     5    1
    23     5     6    1
    24    12    13   ar
    25    13    14   ar
    26    14     9   ar
    27     6     1    1
    28    24    19   ar
@<TRIPOS>MOLECULE
*****
 26 28 0 0 0
SMALL
GASTEIGER

@<TRIPOS>ATOM
      1 N         140.6619  138.8905  160.9565 N.3     1  UNL1       -0.2700
      2 C         140.9757  140.3539  160.8550 C.3     1  UNL1        0.0897
      3 C         142.3180  140.8649  161.2876 C.3     1  UNL1        0.0897
      4 N         143.3465  139.9125  161.8218 N.3     1  UNL1       -0.2700
      5 C         143.0327  138.4492  161.9232 C.3     1  UNL1        0.0897
      6 C         141.6904  137.9382  161.4906 C.3     1  UNL1        0.0897
      7 C         139.3196  138.3795  160.5238 C.3     1  UNL1        0.0769
      8 C         138.1235  138.5708  161.4085 C.3     1  UNL1        0.0437
      9 C         138.6750  139.2412  165.8240 C.ar    1  UNL1        0.0684
     10 C         138.9378  137.8881  165.2323 C.ar    1  UNL1        0.0100
     11 C         138.7540  137.6647  163.7604 C.ar    1  UNL1       -0.0035
     12 C         138.3074  138.7942  162.8804 C.ar    1  UNL1       -0.0207
     13 C         138.0446  140.1472  163.4721 C.ar    1  UNL1       -0.0035
     14 C         138.2284  140.3707  164.9439 C.ar    1  UNL1        0.0100
     15 N         139.0427  139.6881  168.7677 N.1     1  UNL1       -0.1908
     16 C         138.8589  139.4646  167.2958 C.1     1  UNL1        0.1004
     17 C         144.6887  140.4235  162.2544 C.3     1  UNL1        0.0769
     18 C         145.0915  140.3454  163.6973 C.3     1  UNL1        0.0437
     19 C         144.1652  140.8517  164.7629 C.ar    1  UNL1       -0.0207
     20 C         143.2772  139.8946  165.5014 C.ar    1  UNL1       -0.0035
     21 C         142.3509  140.4009  166.5670 C.ar    1  UNL1        0.0100
     22 C         142.3126  141.8643  166.8943 C.ar    1  UNL1        0.0684
     23 C         143.2007  142.8214  166.1558 C.ar    1  UNL1        0.0100
     24 C         144.1270  142.3151  165.0901 C.ar    1  UNL1       -0.0035
     25 C         141.3863  142.3706  167.9599 C.1     1  UNL1        0.1004
     26 N         140.4600  142.8768  169.0256 N.1     1  UNL1       -0.1908
@<TRIPOS>BOND
     1    15    16    3
     2    16     9    1
     3     9    10   ar
     4    10    11   ar
     5    11    12   ar
     6    12     8    1
     7     8     7    1
     8     7     1    1
     9     1     2    1
    10     2     3    1
    11     3     4    1
    12     4    17    1
    13    17    18    1
    14    18    19    1
    15    19    20   ar
    16    20    21   ar
    17    21    22   ar
    18    22    25    1
    19    25    26    3
    20    22    23   ar
    21    23    24   ar
    22     4     5    1
    23     5     6    1
    24    12    13   ar
    25    13    14   ar
    26    14     9   ar
    27     6     1    1
    28    24    19   ar
@<TRIPOS>MOLECULE
*****
 26 28 0 0 0
SMALL
GASTEIGER

@<TRIPOS>ATOM
      1 N         138.1069  140.5431  161.7952 N.3     1  UNL1       -0.2700
      2 C         137.3289  141.2222  162.8832 C.3     1  UNL1        0.0897
      3 C         137.7615  142.5672  163.3870 C.3     1  UNL1        0.0897
      4 N         138.9721  143.2331  162.8027 N.3     1  UNL1       -0.2700
      5 C         139.7500  142.5540  161.7148 C.3     1  UNL1        0.0897
      6 C         139.3174  141.2090  161.2110 C.3     1  UNL1        0.0897
      7 C         137.6743  139.1981  161.2914 C.3     1  UNL1        0.0769
      8 C         138.1059  137.9539  162.0095 C.3     1  UNL1        0.0437
      9 C         141.7196  138.0416  164.6896 C.ar    1  UNL1        0.0684
     10 C         141.8813  137.7841  163.2208 C.ar    1  UNL1        0.0100
     11 C         140.6767  137.7548  162.3274 C.ar    1  UNL1       -0.0035
     12 C         139.3105  137.9831  162.9028 C.ar    1  UNL1       -0.0207
     13 C         139.1488  138.2407  164.3717 C.ar    1  UNL1       -0.0035
     14 C         140.3534  138.2699  165.2650 C.ar    1  UNL1        0.0100
     15 N         144.1288  138.1002  166.4763 N.1     1  UNL1       -0.1908
     16 C         142.9242  138.0709  165.5829 C.1     1  UNL1        0.1004
     17 C         139.4047  144.5781  163.3065 C.3     1  UNL1        0.0769
     18 C         140.7004  144.7197  164.0491 C.3     1  UNL1        0.0437
     19 C         141.0955  143.6943  165.0701 C.ar    1  UNL1       -0.0207
     20 C         142.4324  143.0205  164.9779 C.ar    1  UNL1       -0.0035
     21 C         142.8275  141.9952  165.9990 C.ar    1  UNL1        0.0100
     22 C         141.8857  141.6436  167.1122 C.ar    1  UNL1        0.0684
     23 C         140.5487  142.3174  167.2044 C.ar    1  UNL1        0.0100
     24 C         140.1536  143.3428  166.1834 C.ar    1  UNL1       -0.0035
     25 C         142.2809  140.6182  168.1332 C.1     1  UNL1        0.1004
     26 N         142.6760  139.5929  169.1543 N.1     1  UNL1       -0.1908
@<TRIPOS>BOND
     1    15    16    3
     2    16     9    1
     3     9    10   ar
     4    10    11   ar
     5    11    12   ar
     6    12     8    1
     7     8     7    1
     8     7     1    1
     9     1     2    1
    10     2     3    1
    11     3     4    1
    12     4    17    1
    13    17    18    1
    14    18    19    1
    15    19    20   ar
    16    20    21   ar
    17    21    22   ar
    18    22    25    1
    19    25    26    3
    20    22    23   ar
    21    23    24   ar
    22     4     5    1
    23     5     6    1
    24    12    13   ar
    25    13    14   ar
    26    14     9   ar
    27     6     1    1
    28    24    19   ar
@<TRIPOS>MOLECULE
*****
 26 28 0 0 0
SMALL
GASTEIGER

@<TRIPOS>ATOM
      1 N         142.1752  138.0516  163.4562 N.3     1  UNL1       -0.2700
      2 C         142.8835  138.5880  162.2476 C.3     1  UNL1        0.0897
      3 C         144.0184  139.5551  162.4110 C.3     1  UNL1        0.0897
      4 N         144.4451  139.9857  163.7831 N.3     1  UNL1       -0.2700
      5 C         143.7369  139.4493  164.9917 C.3     1  UNL1        0.0897
      6 C         142.6019  138.4823  164.8282 C.3     1  UNL1        0.0897
      7 C         141.0403  137.0846  163.2928 C.3     1  UNL1        0.0769
      8 C         139.6668  137.5890  162.9623 C.3     1  UNL1        0.0437
      9 C         138.4525  141.7547  164.1547 C.ar    1  UNL1        0.0684
     10 C         138.2962  140.6213  165.1247 C.ar    1  UNL1        0.0100
     11 C         138.7009  139.2327  164.7273 C.ar    1  UNL1       -0.0035
     12 C         139.2620  138.9775  163.3598 C.ar    1  UNL1       -0.0207
     13 C         139.4183  140.1109  162.3898 C.ar    1  UNL1       -0.0035
     14 C         139.0135  141.4995  162.7873 C.ar    1  UNL1        0.0100
     15 N         137.6429  144.5319  164.9497 N.1     1  UNL1       -0.1908
     16 C         138.0477  143.1433  164.5522 C.1     1  UNL1        0.1004
     17 C         145.5800  140.9528  163.9466 C.3     1  UNL1        0.0769
     18 C         145.3036  142.3745  164.3372 C.3     1  UNL1        0.0437
     19 C         144.0622  143.0590  163.8472 C.ar    1  UNL1       -0.0207
     20 C         142.8881  143.2301  164.7649 C.ar    1  UNL1       -0.0035
     21 C         141.6466  143.9147  164.2749 C.ar    1  UNL1        0.0100
     22 C         141.5793  144.4282  162.8672 C.ar    1  UNL1        0.0684
     23 C         142.7534  144.2572  161.9494 C.ar    1  UNL1        0.0100
     24 C         143.9949  143.5726  162.4394 C.ar    1  UNL1       -0.0035
     25 C         140.3378  145.1128  162.3772 C.1     1  UNL1        0.1004
     26 N         139.0963  145.7974  161.8871 N.1     1  UNL1       -0.1908
@<TRIPOS>BOND
     1    15    16    3
     2    16     9    1
     3     9    10   ar
     4    10    11   ar
     5    11    12   ar
     6    12     8    1
     7     8     7    1
     8     7     1    1
     9     1     2    1
    10     2     3    1
    11     3     4    1
    12     4    17    1
    13    17    18    1
    14    18    19    1
    15    19    20   ar
    16    20    21   ar
    17    21    22   ar
    18    22    25    1
    19    25    26    3
    20    22    23   ar
    21    23    24   ar
    22     4     5    1
    23     5     6    1
    24    12    13   ar
    25    13    14   ar
    26    14     9   ar
    27     6     1    1
    28    24    19   ar
@<TRIPOS>MOLECULE
*****
 26 28 0 0 0
SMALL
GASTEIGER

@<TRIPOS>ATOM
      1 N         138.9668  143.3447  162.4126 N.3     1  UNL1       -0.2700
      2 C         137.7552  142.7097  163.0281 C.3     1  UNL1        0.0897
      3 C         137.3377  141.3306  162.6111 C.3     1  UNL1        0.0897
      4 N         138.1318  140.5866  161.5786 N.3     1  UNL1       -0.2700
      5 C         139.3434  141.2217  160.9632 C.3     1  UNL1        0.0897
      6 C         139.7609  142.6007  161.3802 C.3     1  UNL1        0.0897
      7 C         139.3843  144.7238  162.8296 C.3     1  UNL1        0.0769
      8 C         140.5747  144.9089  163.7233 C.3     1  UNL1        0.0437
      9 C         141.5413  141.8224  166.8519 C.ar    1  UNL1        0.0684
     10 C         140.2381  142.5630  166.9065 C.ar    1  UNL1        0.0100
     11 C         139.9159  143.5918  165.8636 C.ar    1  UNL1       -0.0035
     12 C         140.8969  143.8801  164.7662 C.ar    1  UNL1       -0.0207
     13 C         142.2002  143.1395  164.7116 C.ar    1  UNL1       -0.0035
     14 C         142.5224  142.1106  165.7545 C.ar    1  UNL1        0.0100
     15 N         142.1857  139.7646  168.9377 N.1     1  UNL1       -0.1908
     16 C         141.8635  140.7935  167.8948 C.1     1  UNL1        0.1004
     17 C         137.7143  139.2076  161.1616 C.3     1  UNL1        0.0769
     18 C         138.0242  138.0322  162.0405 C.3     1  UNL1        0.0437
     19 C         139.2299  138.0600  162.9325 C.ar    1  UNL1       -0.0207
     20 C         139.0858  138.4387  164.3767 C.ar    1  UNL1       -0.0035
     21 C         140.2914  138.4665  165.2687 C.ar    1  UNL1        0.0100
     22 C         141.6412  138.1156  164.7165 C.ar    1  UNL1        0.0684
     23 C         141.7853  137.7369  163.2722 C.ar    1  UNL1        0.0100
     24 C         140.5797  137.7091  162.3802 C.ar    1  UNL1       -0.0035
     25 C         142.8468  138.1434  165.6085 C.1     1  UNL1        0.1004
     26 N         144.0524  138.1713  166.5005 N.1     1  UNL1       -0.1908
@<TRIPOS>BOND
     1    15    16    3
     2    16     9    1
     3     9    10   ar
     4    10    11   ar
     5    11    12   ar
     6    12     8    1
     7     8     7    1
     8     7     1    1
     9     1     2    1
    10     2     3    1
    11     3     4    1
    12     4    17    1
    13    17    18    1
    14    18    19    1
    15    19    20   ar
    16    20    21   ar
    17    21    22   ar
    18    22    25    1
    19    25    26    3
    20    22    23   ar
    21    23    24   ar
    22     4     5    1
    23     5     6    1
    24    12    13   ar
    25    13    14   ar
    26    14     9   ar
    27     6     1    1
    28    24    19   ar
@<TRIPOS>MOLECULE
*****
 26 28 0 0 0
SMALL
GASTEIGER

@<TRIPOS>ATOM
      1 N         144.9718  141.4129  163.5642 N.3     1  UNL1       -0.2700
      2 C         144.7104  140.1102  164.2606 C.3     1  UNL1        0.0897
      3 C         144.1206  138.9590  163.5011 C.3     1  UNL1        0.0897
      4 N         143.7922  139.1104  162.0452 N.3     1  UNL1       -0.2700
      5 C         144.0537  140.4131  161.3490 C.3     1  UNL1        0.0897
      6 C         144.6435  141.5643  162.1085 C.3     1  UNL1        0.0897
      7 C         145.5616  142.5641  164.3237 C.3     1  UNL1        0.0769
      8 C         144.6666  143.5029  165.0771 C.3     1  UNL1        0.0437
      9 C         140.4615  144.2333  163.6509 C.ar    1  UNL1        0.0684
     10 C         141.5843  145.0901  163.1457 C.ar    1  UNL1        0.0100
     11 C         142.9860  144.8466  163.6211 C.ar    1  UNL1       -0.0035
     12 C         143.2649  143.7464  164.6017 C.ar    1  UNL1       -0.0207
     13 C         142.1421  142.8896  165.1069 C.ar    1  UNL1       -0.0035
     14 C         140.7404  143.1331  164.6315 C.ar    1  UNL1        0.0100
     15 N         137.6582  144.7203  162.7001 N.1     1  UNL1       -0.1908
     16 C         139.0599  144.4768  163.1755 C.1     1  UNL1        0.1004
     17 C         143.2025  137.9592  161.2857 C.3     1  UNL1        0.0769
     18 C         141.7136  137.8307  161.1555 C.3     1  UNL1        0.0437
     19 C         140.8432  137.9271  162.3733 C.ar    1  UNL1       -0.0207
     20 C         141.1738  137.1251  163.5970 C.ar    1  UNL1       -0.0035
     21 C         140.3033  137.2216  164.8148 C.ar    1  UNL1        0.0100
     22 C         139.1023  138.1201  164.8089 C.ar    1  UNL1        0.0684
     23 C         138.7716  138.9222  163.5852 C.ar    1  UNL1        0.0100
     24 C         139.6420  138.8257  162.3674 C.ar    1  UNL1       -0.0035
     25 C         138.2318  138.2166  166.0267 C.1     1  UNL1        0.1004
     26 N         137.3614  138.3131  167.2445 N.1     1  UNL1       -0.1908
@<TRIPOS>BOND
     1    15    16    3
     2    16     9    1
     3     9    10   ar
     4    10    11   ar
     5    11    12   ar
     6    12     8    1
     7     8     7    1
     8     7     1    1
     9     1     2    1
    10     2     3    1
    11     3     4    1
    12     4    17    1
    13    17    18    1
    14    18    19    1
    15    19    20   ar
    16    20    21   ar
    17    21    22   ar
    18    22    25    1
    19    25    26    3
    20    22    23   ar
    21    23    24   ar
    22     4     5    1
    23     5     6    1
    24    12    13   ar
    25    13    14   ar
    26    14     9   ar
    27     6     1    1
    28    24    19   ar
@<TRIPOS>MOLECULE
*****
 26 28 0 0 0
SMALL
GASTEIGER

@<TRIPOS>ATOM
      1 N         143.5811  143.4829  163.0807 N.3     1  UNL1       -0.2700
      2 C         142.7221  142.8819  162.0078 C.3     1  UNL1        0.0897
      3 C         141.4041  143.5095  161.6629 C.3     1  UNL1        0.0897
      4 N         140.9451  144.7381  162.3909 N.3     1  UNL1       -0.2700
      5 C         141.8041  145.3391  163.4636 C.3     1  UNL1        0.0897
      6 C         143.1221  144.7115  163.8086 C.3     1  UNL1        0.0897
      7 C         144.8991  142.8553  163.4256 C.3     1  UNL1        0.0769
      8 C         144.9380  141.5411  164.1476 C.3     1  UNL1        0.0437
      9 C         141.7179  140.5090  167.1168 C.ar    1  UNL1        0.0684
     10 C         142.4443  141.8171  167.2225 C.ar    1  UNL1        0.0100
     11 C         143.5176  142.1612  166.2328 C.ar    1  UNL1       -0.0035
     12 C         143.8646  141.1971  165.1373 C.ar    1  UNL1       -0.0207
     13 C         143.1383  139.8890  165.0316 C.ar    1  UNL1       -0.0035
     14 C         142.0650  139.5449  166.0213 C.ar    1  UNL1        0.0100
     15 N         139.5713  139.8210  169.0962 N.1     1  UNL1       -0.1908
     16 C         140.6446  140.1650  168.1065 C.1     1  UNL1        0.1004
     17 C         139.6270  145.3657  162.0460 C.3     1  UNL1        0.0769
     18 C         138.3731  144.8966  162.7225 C.3     1  UNL1        0.0437
     19 C         138.3396  143.5554  163.3934 C.ar    1  UNL1       -0.0207
     20 C         138.9875  143.3707  164.7335 C.ar    1  UNL1       -0.0035
     21 C         138.9540  142.0295  165.4043 C.ar    1  UNL1        0.0100
     22 C         138.2726  140.8730  164.7350 C.ar    1  UNL1        0.0684
     23 C         137.6245  141.0576  163.3948 C.ar    1  UNL1        0.0100
     24 C         137.6581  142.3988  162.7240 C.ar    1  UNL1       -0.0035
     25 C         138.2390  139.5318  165.4059 C.1     1  UNL1        0.1004
     26 N         138.2055  138.1905  166.0767 N.1     1  UNL1       -0.1908
@<TRIPOS>BOND
     1    15    16    3
     2    16     9    1
     3     9    10   ar
     4    10    11   ar
     5    11    12   ar
     6    12     8    1
     7     8     7    1
     8     7     1    1
     9     1     2    1
    10     2     3    1
    11     3     4    1
    12     4    17    1
    13    17    18    1
    14    18    19    1
    15    19    20   ar
    16    20    21   ar
    17    21    22   ar
    18    22    25    1
    19    25    26    3
    20    22    23   ar
    21    23    24   ar
    22     4     5    1
    23     5     6    1
    24    12    13   ar
    25    13    14   ar
    26    14     9   ar
    27     6     1    1
    28    24    19   ar
@<TRIPOS>MOLECULE
*****
 26 28 0 0 0
SMALL
GASTEIGER

@<TRIPOS>ATOM
      1 N         144.2261  139.8363  164.0095 N.3     1  UNL1       -0.2700
      2 C         143.5362  139.2998  162.7904 C.3     1  UNL1        0.0897
      3 C         142.3933  138.3394  162.9371 C.3     1  UNL1        0.0897
      4 N         141.9404  137.9155  164.3029 N.3     1  UNL1       -0.2700
      5 C         142.6303  138.4521  165.5219 C.3     1  UNL1        0.0897
      6 C         143.7732  139.4125  165.3752 C.3     1  UNL1        0.0897
      7 C         145.3690  140.7967  163.8629 C.3     1  UNL1        0.0769
      8 C         145.1912  142.2374  164.2406 C.3     1  UNL1        0.0437
      9 C         141.8097  144.6252  162.4759 C.ar    1  UNL1        0.0684
     10 C         142.8998  144.1003  161.5893 C.ar    1  UNL1        0.0100
     11 C         144.0270  143.3044  162.1775 C.ar    1  UNL1       -0.0035
     12 C         144.0640  143.0333  163.6523 C.ar    1  UNL1       -0.0207
     13 C         142.9739  143.5582  164.5389 C.ar    1  UNL1       -0.0035
     14 C         141.8467  144.3541  163.9507 C.ar    1  UNL1        0.0100
     15 N         139.5554  146.2170  161.2994 N.1     1  UNL1       -0.1908
     16 C         140.6825  145.4211  161.8876 C.1     1  UNL1        0.1004
     17 C         140.7975  136.9552  164.4495 C.3     1  UNL1        0.0769
     18 C         139.4374  137.4604  164.8303 C.3     1  UNL1        0.0437
     19 C         139.0260  138.8556  164.4640 C.ar    1  UNL1       -0.0207
     20 C         139.2067  139.9735  165.4476 C.ar    1  UNL1       -0.0035
     21 C         138.7953  141.3687  165.0813 C.ar    1  UNL1        0.0100
     22 C         138.2032  141.6460  163.7313 C.ar    1  UNL1        0.0684
     23 C         138.0224  140.5280  162.7476 C.ar    1  UNL1        0.0100
     24 C         138.4338  139.1328  163.1140 C.ar    1  UNL1       -0.0035
     25 C         137.7917  143.0411  163.3650 C.1     1  UNL1        0.1004
     26 N         137.3803  144.4363  162.9986 N.1     1  UNL1       -0.1908
@<TRIPOS>BOND
     1    15    16    3
     2    16     9    1
     3     9    10   ar
     4    10    11   ar
     5    11    12   ar
     6    12     8    1
     7     8     7    1
     8     7     1    1
     9     1     2    1
    10     2     3    1
    11     3     4    1
    12     4    17    1
    13    17    18    1
    14    18    19    1
    15    19    20   ar
    16    20    21   ar
    17    21    22   ar
    18    22    25    1
    19    25    26    3
    20    22    23   ar
    21    23    24   ar
    22     4     5    1
    23     5     6    1
    24    12    13   ar
    25    13    14   ar
    26    14     9   ar
    27     6     1    1
    28    24    19   ar
