@<TRIPOS>MOLECULE
*****
 32 36 0 0 0
SMALL
GASTEIGER

@<TRIPOS>ATOM
      1 N         137.2890  141.4136  161.9525 N.pl3   1  UNL1       -0.2806
      2 H         136.3334  141.4251  161.7160 H       1  UNL1        0.1551
      3 C         137.8061  144.1923  163.5837 C.3     1  UNL1        0.0553
      4 C         138.4202  143.8148  162.2683 C.ar    1  UNL1        0.0935
      5 N         139.3799  144.6482  161.4717 N.ar    1  UNL1       -0.1727
      6 N         139.7353  143.8860  160.2296 N.ar    1  UNL1       -0.2558
      7 C         138.9953  142.5816  160.2584 C.ar    1  UNL1        0.0704
      8 C         139.0572  141.5095  159.2113 C.3     1  UNL1        0.0531
      9 C         138.1825  142.5375  161.5184 C.ar    1  UNL1        0.0792
     10 C         140.6671  144.3474  159.1484 C.3     1  UNL1        0.1076
     11 C         140.3051  145.5309  158.3010 C.3     1  UNL1        0.0415
     12 C         141.2369  145.9923  157.2197 C.3     1  UNL1        0.0706
     13 N         142.5306  145.2700  156.9861 N.3     1  UNL1       -0.2974
     14 C         142.8926  144.0864  157.8335 C.3     1  UNL1        0.0706
     15 C         141.9607  143.6251  158.9146 C.3     1  UNL1        0.0415
     16 H         143.2763  145.9558  157.1043 H       1  UNL1        0.1232
     17 C         137.8514  140.2722  162.7468 C.ar    1  UNL1        0.2208
     18 N         138.1414  138.9625  162.0756 N.ar    1  UNL1       -0.2111
     19 C         138.7037  137.8211  162.8700 C.ar    1  UNL1        0.1147
     20 C         138.9761  137.9894  164.3354 C.ar    1  UNL1        0.0946
     21 CL        139.5384  136.8480  165.1297 Cl      1  UNL1       -0.0790
     22 C         138.6860  139.2993  165.0065 C.ar    1  UNL1        0.0992
     23 N         138.1237  140.4406  164.2122 N.ar    1  UNL1       -0.2126
     24 C         138.9584  139.4676  166.4720 C.ar    1  UNL1        0.0572
     25 C         137.9826  139.2207  167.5842 C.ar    1  UNL1        0.1235
     26 N         138.6755  139.5129  168.8820 N.ar    1  UNL1       -0.1634
     27 N         140.0795  139.9405  168.5720 N.ar    1  UNL1       -0.2281
     28 C         141.2213  140.3516  169.4535 C.ar    1  UNL1        0.1004
     29 C         142.5379  140.7348  168.8456 C.ar    1  UNL1        0.0207
     30 C         142.7127  140.7068  167.3560 C.ar    1  UNL1        0.0031
     31 C         141.5709  140.2956  166.4745 C.ar    1  UNL1        0.0193
     32 C         140.2543  139.9125  167.0825 C.ar    1  UNL1        0.0858
@<TRIPOS>BOND
     1     3     4    1
     2     4     5   ar
     3     5     6   ar
     4     6    10    1
     5    10    11    1
     6    11    12    1
     7    12    13    1
     8    13    14    1
     9    14    15    1
    10     6     7   ar
    11     7     8    1
    12     7     9   ar
    13     9     1    1
    14     1    17    1
    15    17    18   ar
    16    18    19   ar
    17    19    20   ar
    18    20    21    1
    19    20    22   ar
    20    22    24    1
    21    24    25   ar
    22    25    26   ar
    23    26    27   ar
    24    27    28   ar
    25    28    29   ar
    26    29    30   ar
    27    30    31   ar
    28    31    32   ar
    29    22    23   ar
    30     9     4   ar
    31    23    17   ar
    32    15    10    1
    33    32    24   ar
    34    32    27   ar
    35    13    16    1
    36     1     2    1
@<TRIPOS>MOLECULE
*****
 32 36 0 0 0
SMALL
GASTEIGER

@<TRIPOS>ATOM
      1 N         140.5744  138.0116  164.5618 N.pl3   1  UNL1       -0.2806
      2 H         140.6592  137.0382  164.6826 H       1  UNL1        0.1551
      3 C         143.7050  138.9154  164.7388 C.3     1  UNL1        0.0553
      4 C         142.6050  139.3628  165.6552 C.ar    1  UNL1        0.0935
      5 N         142.7509  140.3041  166.8140 N.ar    1  UNL1       -0.1727
      6 N         141.4019  140.4705  167.4487 N.ar    1  UNL1       -0.2558
      7 C         140.4224  139.6320  166.6823 C.ar    1  UNL1        0.0704
      8 C         138.9568  139.5010  166.9732 C.3     1  UNL1        0.0531
      9 C         141.1659  138.9473  165.5739 C.ar    1  UNL1        0.0792
     10 C         141.0877  141.3253  168.6406 C.3     1  UNL1        0.1076
     11 C         141.1671  140.7450  170.0215 C.3     1  UNL1        0.0415
     12 C         140.8529  141.5999  171.2135 C.3     1  UNL1        0.0706
     13 N         140.4594  143.0349  171.0243 N.3     1  UNL1       -0.2974
     14 C         140.3800  143.6152  169.6434 C.3     1  UNL1        0.0706
     15 C         140.6943  142.7603  168.4515 C.3     1  UNL1        0.0415
     16 H         141.1361  143.5964  171.5412 H       1  UNL1        0.1232
     17 C         139.8535  138.5588  163.3656 C.ar    1  UNL1        0.2208
     18 N         138.6490  137.8466  162.8252 N.ar    1  UNL1       -0.2111
     19 C         137.9282  138.3938  161.6290 C.ar    1  UNL1        0.1147
     20 C         138.4117  139.6533  160.9732 C.ar    1  UNL1        0.0946
     21 CL        137.6908  140.2005  159.7770 Cl      1  UNL1       -0.0790
     22 C         139.6162  140.3655  161.5137 C.ar    1  UNL1        0.0992
     23 N         140.3370  139.8183  162.7098 N.ar    1  UNL1       -0.2126
     24 C         140.0998  141.6249  160.8579 C.ar    1  UNL1        0.0572
     25 C         140.9179  141.7077  159.6034 C.ar    1  UNL1        0.1235
     26 N         141.1738  143.1567  159.3118 N.ar    1  UNL1       -0.1634
     27 N         140.5139  143.9694  160.3860 N.ar    1  UNL1       -0.2281
     28 C         140.4316  145.4491  160.6175 C.ar    1  UNL1        0.1004
     29 C         139.6855  145.9821  161.8045 C.ar    1  UNL1        0.0207
     30 C         139.0217  145.0355  162.7601 C.ar    1  UNL1        0.0031
     31 C         139.1040  143.5557  162.5287 C.ar    1  UNL1        0.0193
     32 C         139.8501  143.0227  161.3416 C.ar    1  UNL1        0.0858
@<TRIPOS>BOND
     1     3     4    1
     2     4     5   ar
     3     5     6   ar
     4     6    10    1
     5    10    11    1
     6    11    12    1
     7    12    13    1
     8    13    14    1
     9    14    15    1
    10     6     7   ar
    11     7     8    1
    12     7     9   ar
    13     9     1    1
    14     1    17    1
    15    17    18   ar
    16    18    19   ar
    17    19    20   ar
    18    20    21    1
    19    20    22   ar
    20    22    24    1
    21    24    25   ar
    22    25    26   ar
    23    26    27   ar
    24    27    28   ar
    25    28    29   ar
    26    29    30   ar
    27    30    31   ar
    28    31    32   ar
    29    22    23   ar
    30     9     4   ar
    31    23    17   ar
    32    15    10    1
    33    32    24   ar
    34    32    27   ar
    35    13    16    1
    36     1     2    1
@<TRIPOS>MOLECULE
*****
 32 36 0 0 0
SMALL
GASTEIGER

@<TRIPOS>ATOM
      1 N         137.7645  139.9349  164.4978 N.pl3   1  UNL1       -0.2806
      2 H         136.8047  140.1387  164.4170 H       1  UNL1        0.1551
      3 C         137.3600  137.8442  166.9706 C.3     1  UNL1        0.0553
      4 C         138.2515  139.0505  166.9728 C.ar    1  UNL1        0.0935
      5 N         139.1135  139.5077  168.1121 N.ar    1  UNL1       -0.1727
      6 N         139.8322  140.7514  167.6795 N.ar    1  UNL1       -0.2558
      7 C         139.4144  141.0627  166.2730 C.ar    1  UNL1        0.0704
      8 C         139.8899  142.2217  165.4480 C.3     1  UNL1        0.0531
      9 C         138.4374  140.0116  165.8361 C.ar    1  UNL1        0.0792
     10 C         140.7990  141.5443  168.5080 C.3     1  UNL1        0.1076
     11 C         142.2149  141.0742  168.6635 C.3     1  UNL1        0.0415
     12 C         143.1818  141.8672  169.4920 C.3     1  UNL1        0.0706
     13 N         142.7326  143.1302  170.1651 N.3     1  UNL1       -0.2974
     14 C         141.3167  143.6003  170.0097 C.3     1  UNL1        0.0706
     15 C         140.3499  142.8073  169.1811 C.3     1  UNL1        0.0415
     16 H         143.3313  143.8788  169.8163 H       1  UNL1        0.1232
     17 C         138.5538  139.5476  163.2825 C.ar    1  UNL1        0.2208
     18 N         138.1068  138.3943  162.4340 N.ar    1  UNL1       -0.2111
     19 C         138.8961  138.0071  161.2187 C.ar    1  UNL1        0.1147
     20 C         140.1325  138.7731  160.8519 C.ar    1  UNL1        0.0946
     21 CL        140.9218  138.3859  159.6366 Cl      1  UNL1       -0.0790
     22 C         140.5795  139.9265  161.7005 C.ar    1  UNL1        0.0992
     23 N         139.7902  140.3137  162.9157 N.ar    1  UNL1       -0.2126
     24 C         141.8159  140.6926  161.3337 C.ar    1  UNL1        0.0572
     25 C         142.0833  141.3563  160.0153 C.ar    1  UNL1        0.1235
     26 N         143.4346  142.0033  160.0878 N.ar    1  UNL1       -0.1634
     27 N         144.0024  141.7396  161.4509 N.ar    1  UNL1       -0.2281
     28 C         145.3011  142.1324  162.0904 C.ar    1  UNL1        0.1004
     29 C         145.5994  141.7151  163.4999 C.ar    1  UNL1        0.0207
     30 C         144.5990  140.9051  164.2700 C.ar    1  UNL1        0.0031
     31 C         143.3003  140.5122  163.6304 C.ar    1  UNL1        0.0193
     32 C         143.0020  140.9295  162.2209 C.ar    1  UNL1        0.0858
@<TRIPOS>BOND
     1     3     4    1
     2     4     5   ar
     3     5     6   ar
     4     6    10    1
     5    10    11    1
     6    11    12    1
     7    12    13    1
     8    13    14    1
     9    14    15    1
    10     6     7   ar
    11     7     8    1
    12     7     9   ar
    13     9     1    1
    14     1    17    1
    15    17    18   ar
    16    18    19   ar
    17    19    20   ar
    18    20    21    1
    19    20    22   ar
    20    22    24    1
    21    24    25   ar
    22    25    26   ar
    23    26    27   ar
    24    27    28   ar
    25    28    29   ar
    26    29    30   ar
    27    30    31   ar
    28    31    32   ar
    29    22    23   ar
    30     9     4   ar
    31    23    17   ar
    32    15    10    1
    33    32    24   ar
    34    32    27   ar
    35    13    16    1
    36     1     2    1
@<TRIPOS>MOLECULE
*****
 32 36 0 0 0
SMALL
GASTEIGER

@<TRIPOS>ATOM
      1 N         140.8574  137.9790  164.5036 N.pl3   1  UNL1       -0.2806
      2 H         140.9653  137.0055  164.6025 H       1  UNL1        0.1551
      3 C         143.9351  139.0095  164.8429 C.3     1  UNL1        0.0553
      4 C         142.7801  139.3759  165.7270 C.ar    1  UNL1        0.0935
      5 N         142.8370  140.2803  166.9224 N.ar    1  UNL1       -0.1727
      6 N         141.4574  140.3656  167.5052 N.ar    1  UNL1       -0.2558
      7 C         140.5479  139.5139  166.6701 C.ar    1  UNL1        0.0704
      8 C         139.0790  139.3097  166.8944 C.3     1  UNL1        0.0531
      9 C         141.3654  138.9022  165.5711 C.ar    1  UNL1        0.0792
     10 C         141.0575  141.1626  168.7114 C.3     1  UNL1        0.1076
     11 C         140.6564  142.6001  168.5611 C.3     1  UNL1        0.0415
     12 C         140.2565  143.3972  169.7674 C.3     1  UNL1        0.0706
     13 N         140.2578  142.7566  171.1237 N.3     1  UNL1       -0.2974
     14 C         140.6589  141.3191  171.2739 C.3     1  UNL1        0.0706
     15 C         141.0587  140.5221  170.0677 C.3     1  UNL1        0.0415
     16 H         139.3086  142.8371  171.4882 H       1  UNL1        0.1232
     17 C         140.1851  138.5390  163.2852 C.ar    1  UNL1        0.2208
     18 N         139.6858  137.6163  162.2132 N.ar    1  UNL1       -0.2111
     19 C         139.0135  138.1763  160.9949 C.ar    1  UNL1        0.1147
     20 C         138.8405  139.6591  160.8485 C.ar    1  UNL1        0.0946
     21 CL        138.1682  140.2191  159.6302 Cl      1  UNL1       -0.0790
     22 C         139.3399  140.5819  161.9206 C.ar    1  UNL1        0.0992
     23 N         140.0121  140.0218  163.1388 N.ar    1  UNL1       -0.2126
     24 C         139.1669  142.0647  161.7742 C.ar    1  UNL1        0.0572
     25 C         138.0873  142.8930  162.4054 C.ar    1  UNL1        0.1235
     26 N         138.2964  144.3197  161.9922 N.ar    1  UNL1       -0.1634
     27 N         139.5052  144.3732  161.1057 N.ar    1  UNL1       -0.2281
     28 C         140.1855  145.5109  160.4038 C.ar    1  UNL1        0.1004
     29 C         141.4039  145.2549  159.5671 C.ar    1  UNL1        0.0207
     30 C         141.9419  143.8612  159.4324 C.ar    1  UNL1        0.0031
     31 C         141.2616  142.7235  160.1344 C.ar    1  UNL1        0.0193
     32 C         140.0432  142.9795  160.9710 C.ar    1  UNL1        0.0858
@<TRIPOS>BOND
     1     3     4    1
     2     4     5   ar
     3     5     6   ar
     4     6    10    1
     5    10    11    1
     6    11    12    1
     7    12    13    1
     8    13    14    1
     9    14    15    1
    10     6     7   ar
    11     7     8    1
    12     7     9   ar
    13     9     1    1
    14     1    17    1
    15    17    18   ar
    16    18    19   ar
    17    19    20   ar
    18    20    21    1
    19    20    22   ar
    20    22    24    1
    21    24    25   ar
    22    25    26   ar
    23    26    27   ar
    24    27    28   ar
    25    28    29   ar
    26    29    30   ar
    27    30    31   ar
    28    31    32   ar
    29    22    23   ar
    30     9     4   ar
    31    23    17   ar
    32    15    10    1
    33    32    24   ar
    34    32    27   ar
    35    13    16    1
    36     1     2    1
@<TRIPOS>MOLECULE
*****
 32 36 0 0 0
SMALL
GASTEIGER

@<TRIPOS>ATOM
      1 N         137.3066  140.7848  163.5952 N.pl3   1  UNL1       -0.2806
      2 H         136.3338  140.8208  163.7424 H       1  UNL1        0.1551
      3 C         138.7813  143.6659  164.0122 C.3     1  UNL1        0.0553
      4 C         138.9250  142.4652  164.8997 C.ar    1  UNL1        0.0935
      5 N         139.7719  142.3780  166.1347 N.ar    1  UNL1       -0.1727
      6 N         139.6174  140.9997  166.7063 N.ar    1  UNL1       -0.2558
      7 C         138.6752  140.2352  165.8246 C.ar    1  UNL1        0.0704
      8 C         138.2376  138.8145  166.0243 C.3     1  UNL1        0.0531
      9 C         138.2472  141.1408  164.7080 C.ar    1  UNL1        0.0792
     10 C         140.2876  140.4778  167.9426 C.3     1  UNL1        0.1076
     11 C         139.5607  140.4966  169.2546 C.3     1  UNL1        0.0415
     12 C         140.2309  139.9746  170.4909 C.3     1  UNL1        0.0706
     13 N         141.6280  139.4338  170.4151 N.3     1  UNL1       -0.2974
     14 C         142.3549  139.4150  169.1032 C.3     1  UNL1        0.0706
     15 C         141.6846  139.9370  167.8669 C.3     1  UNL1        0.0415
     16 H         141.5885  138.4690  170.7437 H       1  UNL1        0.1232
     17 C         137.8480  140.3739  162.2580 C.ar    1  UNL1        0.2208
     18 N         138.2853  138.9574  162.0291 N.ar    1  UNL1       -0.2111
     19 C         138.8267  138.5465  160.6919 C.ar    1  UNL1        0.1147
     20 C         138.9309  139.5520  159.5837 C.ar    1  UNL1        0.0946
     21 CL        139.4724  139.1411  158.2466 Cl      1  UNL1       -0.0790
     22 C         138.4937  140.9686  159.8128 C.ar    1  UNL1        0.0992
     23 N         137.9523  141.3794  161.1499 N.ar    1  UNL1       -0.2126
     24 C         138.5979  141.9741  158.7046 C.ar    1  UNL1        0.0572
     25 C         139.5755  143.1095  158.6334 C.ar    1  UNL1        0.1235
     26 N         139.3245  143.8579  157.3578 N.ar    1  UNL1       -0.1634
     27 N         138.1918  143.1850  156.6407 N.ar    1  UNL1       -0.2281
     28 C         137.5114  143.4820  155.3374 C.ar    1  UNL1        0.1004
     29 C         136.3818  142.6147  154.8665 C.ar    1  UNL1        0.0207
     30 C         135.9327  141.4505  155.6988 C.ar    1  UNL1        0.0031
     31 C         136.6131  141.1535  157.0021 C.ar    1  UNL1        0.0193
     32 C         137.7427  142.0207  157.4731 C.ar    1  UNL1        0.0858
@<TRIPOS>BOND
     1     3     4    1
     2     4     5   ar
     3     5     6   ar
     4     6    10    1
     5    10    11    1
     6    11    12    1
     7    12    13    1
     8    13    14    1
     9    14    15    1
    10     6     7   ar
    11     7     8    1
    12     7     9   ar
    13     9     1    1
    14     1    17    1
    15    17    18   ar
    16    18    19   ar
    17    19    20   ar
    18    20    21    1
    19    20    22   ar
    20    22    24    1
    21    24    25   ar
    22    25    26   ar
    23    26    27   ar
    24    27    28   ar
    25    28    29   ar
    26    29    30   ar
    27    30    31   ar
    28    31    32   ar
    29    22    23   ar
    30     9     4   ar
    31    23    17   ar
    32    15    10    1
    33    32    24   ar
    34    32    27   ar
    35    13    16    1
    36     1     2    1
@<TRIPOS>MOLECULE
*****
 32 36 0 0 0
SMALL
GASTEIGER

@<TRIPOS>ATOM
      1 N         137.3003  140.8284  163.6384 N.pl3   1  UNL1       -0.2806
      2 H         136.3290  140.8762  163.7916 H       1  UNL1        0.1551
      3 C         138.8240  143.6858  164.0417 C.3     1  UNL1        0.0553
      4 C         138.9525  142.4849  164.9312 C.ar    1  UNL1        0.0935
      5 N         139.8039  142.3865  166.1623 N.ar    1  UNL1       -0.1727
      6 N         139.6296  141.0122  166.7377 N.ar    1  UNL1       -0.2558
      7 C         138.6706  140.2612  165.8623 C.ar    1  UNL1        0.0704
      8 C         138.2108  138.8483  166.0674 C.3     1  UNL1        0.0531
      9 C         138.2521  141.1714  164.7458 C.ar    1  UNL1        0.0792
     10 C         140.2972  140.4819  167.9719 C.3     1  UNL1        0.1076
     11 C         141.6924  139.9364  167.8943 C.3     1  UNL1        0.0415
     12 C         142.3600  139.4061  169.1285 C.3     1  UNL1        0.0706
     13 N         141.6324  139.4215  170.4402 N.3     1  UNL1       -0.2974
     14 C         140.2373  139.9670  170.5177 C.3     1  UNL1        0.0706
     15 C         139.5698  140.4972  169.2835 C.3     1  UNL1        0.0415
     16 H         142.1999  139.9713  171.0852 H       1  UNL1        0.1232
     17 C         137.8284  140.4126  162.2974 C.ar    1  UNL1        0.2208
     18 N         138.2392  138.9893  162.0616 N.ar    1  UNL1       -0.2111
     19 C         138.7672  138.5735  160.7207 C.ar    1  UNL1        0.1147
     20 C         138.8845  139.5809  159.6155 C.ar    1  UNL1        0.0946
     21 CL        139.4126  139.1650  158.2745 Cl      1  UNL1       -0.0790
     22 C         138.4737  141.0042  159.8513 C.ar    1  UNL1        0.0992
     23 N         137.9456  141.4200  161.1922 N.ar    1  UNL1       -0.2126
     24 C         138.5909  142.0116  158.7461 C.ar    1  UNL1        0.0572
     25 C         137.7718  142.0416  157.4899 C.ar    1  UNL1        0.1235
     26 N         138.2226  143.2144  156.6706 N.ar    1  UNL1       -0.1634
     27 N         139.3203  143.9092  157.4204 N.ar    1  UNL1       -0.2281
     28 C         140.1419  145.1228  157.1009 C.ar    1  UNL1        0.1004
     29 C         141.1912  145.5930  158.0641 C.ar    1  UNL1        0.0207
     30 C         141.4189  144.8496  159.3469 C.ar    1  UNL1        0.0031
     31 C         140.5972  143.6360  159.6664 C.ar    1  UNL1        0.0193
     32 C         139.5480  143.1659  158.7032 C.ar    1  UNL1        0.0858
@<TRIPOS>BOND
     1     3     4    1
     2     4     5   ar
     3     5     6   ar
     4     6    10    1
     5    10    11    1
     6    11    12    1
     7    12    13    1
     8    13    14    1
     9    14    15    1
    10     6     7   ar
    11     7     8    1
    12     7     9   ar
    13     9     1    1
    14     1    17    1
    15    17    18   ar
    16    18    19   ar
    17    19    20   ar
    18    20    21    1
    19    20    22   ar
    20    22    24    1
    21    24    25   ar
    22    25    26   ar
    23    26    27   ar
    24    27    28   ar
    25    28    29   ar
    26    29    30   ar
    27    30    31   ar
    28    31    32   ar
    29    22    23   ar
    30     9     4   ar
    31    23    17   ar
    32    15    10    1
    33    32    24   ar
    34    32    27   ar
    35    13    16    1
    36     1     2    1
@<TRIPOS>MOLECULE
*****
 32 36 0 0 0
SMALL
GASTEIGER

@<TRIPOS>ATOM
      1 N         143.1991  144.5499  162.0827 N.pl3   1  UNL1       -0.2806
      2 H         143.7158  145.3846  162.0088 H       1  UNL1        0.1551
      3 C         145.1873  142.3576  163.4575 C.3     1  UNL1        0.0553
      4 C         144.6208  142.2864  162.0704 C.ar    1  UNL1        0.0935
      5 N         144.8687  141.1949  161.0717 N.ar    1  UNL1       -0.1727
      6 N         144.1079  141.5281  159.8225 N.ar    1  UNL1       -0.2558
      7 C         143.3899  142.8254  160.0492 C.ar    1  UNL1        0.0704
      8 C         142.5096  143.5303  159.0603 C.3     1  UNL1        0.0531
      9 C         143.7068  143.2941  161.4384 C.ar    1  UNL1        0.0792
     10 C         144.0716  140.7079  158.5671 C.3     1  UNL1        0.1076
     11 C         144.9507  141.0722  157.4076 C.3     1  UNL1        0.0415
     12 C         144.9144  140.2521  156.1522 C.3     1  UNL1        0.0706
     13 N         143.9990  139.0676  156.0564 N.3     1  UNL1       -0.2974
     14 C         143.1200  138.7033  157.2159 C.3     1  UNL1        0.0706
     15 C         143.1563  139.5235  158.4713 C.3     1  UNL1        0.0415
     16 H         144.5867  138.2559  155.8660 H       1  UNL1        0.1232
     17 C         141.9041  144.5340  162.8395 C.ar    1  UNL1        0.2208
     18 N         140.7788  145.4324  162.4193 N.ar    1  UNL1       -0.2111
     19 C         139.4838  145.4164  163.1762 C.ar    1  UNL1        0.1147
     20 C         139.3142  144.5021  164.3531 C.ar    1  UNL1        0.0946
     21 CL        138.0192  144.4861  165.1099 Cl      1  UNL1       -0.0790
     22 C         140.4396  143.6036  164.7732 C.ar    1  UNL1        0.0992
     23 N         141.7345  143.6196  164.0164 N.ar    1  UNL1       -0.2126
     24 C         140.2699  142.6892  165.9502 C.ar    1  UNL1        0.0572
     25 C         140.8249  142.9108  167.3260 C.ar    1  UNL1        0.1235
     26 N         140.4134  141.7513  168.1840 N.ar    1  UNL1       -0.1634
     27 N         139.6042  140.8131  167.3385 N.ar    1  UNL1       -0.2281
     28 C         138.9366  139.5058  167.6473 C.ar    1  UNL1        0.1004
     29 C         138.1803  138.7783  166.5755 C.ar    1  UNL1        0.0207
     30 C         138.0916  139.3580  165.1949 C.ar    1  UNL1        0.0031
     31 C         138.7592  140.6653  164.8861 C.ar    1  UNL1        0.0193
     32 C         139.5155  141.3928  165.9578 C.ar    1  UNL1        0.0858
@<TRIPOS>BOND
     1     3     4    1
     2     4     5   ar
     3     5     6   ar
     4     6    10    1
     5    10    11    1
     6    11    12    1
     7    12    13    1
     8    13    14    1
     9    14    15    1
    10     6     7   ar
    11     7     8    1
    12     7     9   ar
    13     9     1    1
    14     1    17    1
    15    17    18   ar
    16    18    19   ar
    17    19    20   ar
    18    20    21    1
    19    20    22   ar
    20    22    24    1
    21    24    25   ar
    22    25    26   ar
    23    26    27   ar
    24    27    28   ar
    25    28    29   ar
    26    29    30   ar
    27    30    31   ar
    28    31    32   ar
    29    22    23   ar
    30     9     4   ar
    31    23    17   ar
    32    15    10    1
    33    32    24   ar
    34    32    27   ar
    35    13    16    1
    36     1     2    1
@<TRIPOS>MOLECULE
*****
 32 36 0 0 0
SMALL
GASTEIGER

@<TRIPOS>ATOM
      1 N         143.6746  138.6379  162.6141 N.pl3   1  UNL1       -0.2806
      2 H         144.3539  137.9254  162.6186 H       1  UNL1        0.1551
      3 C         141.0288  137.0737  163.7106 C.3     1  UNL1        0.0553
      4 C         141.1741  137.7259  162.3676 C.ar    1  UNL1        0.0935
      5 N         140.1287  137.7736  161.2929 N.ar    1  UNL1       -0.1727
      6 N         140.6989  138.5222  160.1246 N.ar    1  UNL1       -0.2558
      7 C         142.0965  138.9370  160.4773 C.ar    1  UNL1        0.0704
      8 C         143.0356  139.7085  159.5983 C.3     1  UNL1        0.0531
      9 C         142.3903  138.4449  161.8636 C.ar    1  UNL1        0.0792
     10 C         139.9949  138.8060  158.8308 C.3     1  UNL1        0.1076
     11 C         140.1987  137.9011  157.6520 C.3     1  UNL1        0.0415
     12 C         139.4948  138.1849  156.3581 C.3     1  UNL1        0.0706
     13 N         138.5871  139.3736  156.2433 N.3     1  UNL1       -0.2974
     14 C         138.3833  140.2784  157.4221 C.3     1  UNL1        0.0706
     15 C         139.0873  139.9945  158.7159 C.3     1  UNL1        0.0415
     16 H         137.6673  139.0176  155.9829 H       1  UNL1        0.1232
     17 C         143.9239  139.9165  163.3578 C.ar    1  UNL1        0.2208
     18 N         145.2075  140.6650  163.1532 N.ar    1  UNL1       -0.2111
     19 C         145.4569  141.9436  163.8968 C.ar    1  UNL1        0.1147
     20 C         144.4225  142.4736  164.8451 C.ar    1  UNL1        0.0946
     21 CL        144.6718  143.7522  165.5888 Cl      1  UNL1       -0.0790
     22 C         143.1388  141.7250  165.0497 C.ar    1  UNL1        0.0992
     23 N         142.8895  140.4465  164.3061 N.ar    1  UNL1       -0.2126
     24 C         142.1044  142.2551  165.9980 C.ar    1  UNL1        0.0572
     25 C         140.7656  142.8153  165.6191 C.ar    1  UNL1        0.1235
     26 N         140.0611  143.2243  166.8787 N.ar    1  UNL1       -0.1634
     27 N         140.9646  142.9170  168.0359 N.ar    1  UNL1       -0.2281
     28 C         140.8005  143.1052  169.5150 C.ar    1  UNL1        0.1004
     29 C         141.8993  142.6944  170.4497 C.ar    1  UNL1        0.0207
     30 C         143.1622  142.0953  169.9054 C.ar    1  UNL1        0.0031
     31 C         143.3263  141.9071  168.4264 C.ar    1  UNL1        0.0193
     32 C         142.2275  142.3179  167.4916 C.ar    1  UNL1        0.0858
@<TRIPOS>BOND
     1     3     4    1
     2     4     5   ar
     3     5     6   ar
     4     6    10    1
     5    10    11    1
     6    11    12    1
     7    12    13    1
     8    13    14    1
     9    14    15    1
    10     6     7   ar
    11     7     8    1
    12     7     9   ar
    13     9     1    1
    14     1    17    1
    15    17    18   ar
    16    18    19   ar
    17    19    20   ar
    18    20    21    1
    19    20    22   ar
    20    22    24    1
    21    24    25   ar
    22    25    26   ar
    23    26    27   ar
    24    27    28   ar
    25    28    29   ar
    26    29    30   ar
    27    30    31   ar
    28    31    32   ar
    29    22    23   ar
    30     9     4   ar
    31    23    17   ar
    32    15    10    1
    33    32    24   ar
    34    32    27   ar
    35    13    16    1
    36     1     2    1
@<TRIPOS>MOLECULE
*****
 32 36 0 0 0
SMALL
GASTEIGER

@<TRIPOS>ATOM
      1 N         143.0707  144.5159  162.0295 N.pl3   1  UNL1       -0.2806
      2 H         143.5675  145.3652  162.0647 H       1  UNL1        0.1551
      3 C         145.1329  142.3348  163.3099 C.3     1  UNL1        0.0553
      4 C         144.6049  142.3305  161.9059 C.ar    1  UNL1        0.0935
      5 N         144.9320  141.3229  160.8440 N.ar    1  UNL1       -0.1727
      6 N         144.1863  141.7028  159.5990 N.ar    1  UNL1       -0.2558
      7 C         143.3983  142.9451  159.8916 C.ar    1  UNL1        0.0704
      8 C         142.5080  143.6719  158.9278 C.3     1  UNL1        0.0531
      9 C         143.6570  143.3331  161.3173 C.ar    1  UNL1        0.0792
     10 C         144.2223  140.9691  158.2912 C.3     1  UNL1        0.1076
     11 C         143.2578  139.8499  158.0324 C.3     1  UNL1        0.0415
     12 C         143.2938  139.1161  156.7245 C.3     1  UNL1        0.0706
     13 N         144.2943  139.5018  155.6756 N.3     1  UNL1       -0.2974
     14 C         145.2588  140.6210  155.9344 C.3     1  UNL1        0.0706
     15 C         145.2228  141.3546  157.2423 C.3     1  UNL1        0.0415
     16 H         143.7640  139.7569  154.8424 H       1  UNL1        0.1232
     17 C         141.7276  144.4049  162.6880 C.ar    1  UNL1        0.2208
     18 N         140.6993  145.4768  162.4796 N.ar    1  UNL1       -0.2111
     19 C         139.3562  145.3658  163.1381 C.ar    1  UNL1        0.1147
     20 C         139.0414  144.1829  164.0052 C.ar    1  UNL1        0.0946
     21 CL        137.6983  144.0719  164.6637 Cl      1  UNL1       -0.0790
     22 C         140.0699  143.1110  164.2136 C.ar    1  UNL1        0.0992
     23 N         141.4129  143.2220  163.5550 N.ar    1  UNL1       -0.2126
     24 C         139.7551  141.9281  165.0806 C.ar    1  UNL1        0.0572
     25 C         139.1999  140.6153  164.6134 C.ar    1  UNL1        0.1235
     26 N         139.0420  139.7262  165.8111 N.ar    1  UNL1       -0.1634
     27 N         139.4996  140.4895  167.0186 N.ar    1  UNL1       -0.2281
     28 C         139.5719  140.1212  168.4708 C.ar    1  UNL1        0.1004
     29 C         140.0850  141.1137  169.4716 C.ar    1  UNL1        0.0207
     30 C         140.5258  142.4745  169.0201 C.ar    1  UNL1        0.0031
     31 C         140.4534  142.8429  167.5679 C.ar    1  UNL1        0.0193
     32 C         139.9404  141.8503  166.5671 C.ar    1  UNL1        0.0858
@<TRIPOS>BOND
     1     3     4    1
     2     4     5   ar
     3     5     6   ar
     4     6    10    1
     5    10    11    1
     6    11    12    1
     7    12    13    1
     8    13    14    1
     9    14    15    1
    10     6     7   ar
    11     7     8    1
    12     7     9   ar
    13     9     1    1
    14     1    17    1
    15    17    18   ar
    16    18    19   ar
    17    19    20   ar
    18    20    21    1
    19    20    22   ar
    20    22    24    1
    21    24    25   ar
    22    25    26   ar
    23    26    27   ar
    24    27    28   ar
    25    28    29   ar
    26    29    30   ar
    27    30    31   ar
    28    31    32   ar
    29    22    23   ar
    30     9     4   ar
    31    23    17   ar
    32    15    10    1
    33    32    24   ar
    34    32    27   ar
    35    13    16    1
    36     1     2    1
