@<TRIPOS>MOLECULE
*****
 35 38 0 0 0
SMALL
GASTEIGER

@<TRIPOS>ATOM
      1 C         141.1148  138.6121  161.6648 C.ar    1  UNL1        0.0972
      2 N         139.6296  138.4271  161.5658 N.ar    1  UNL1       -0.2412
      3 C         138.8354  138.0685  162.7867 C.ar    1  UNL1        0.1172
      4 C         139.5265  137.8948  164.1067 C.ar    1  UNL1        0.1213
      5 N         141.0118  138.0797  164.2057 N.ar    1  UNL1       -0.2472
      6 C         141.8059  138.4384  162.9847 C.ar    1  UNL1        0.0764
      7 C         143.0184  138.2801  158.1983 C.ar    1  UNL1        0.2252
      8 C         142.2243  137.9215  159.4193 C.ar    1  UNL1        0.0615
      9 C         141.9090  138.9707  160.4438 C.ar    1  UNL1        0.0525
     10 C         142.3879  140.3786  160.2474 C.ar    1  UNL1        0.1608
     11 F         142.0726  141.4278  161.2719 F       1  UNL1       -0.2025
     12 C         143.1820  140.7372  159.0264 C.ar    1  UNL1        0.1316
     13 N         143.4973  139.6879  158.0019 N.ar    1  UNL1       -0.2078
     14 C         143.5736  137.6244  155.7464 C.3     1  UNL1        0.2542
     15 O         143.3337  137.2308  157.1738 O.3     1  UNL1       -0.4561
     16 C         138.7324  137.5361  165.3276 C.3     1  UNL1        0.2524
     17 O         138.1744  138.6181  166.2039 O.3     1  UNL1       -0.4689
     18 C         138.9859  139.8476  166.4865 C.ar    1  UNL1        0.1388
     19 C         139.8303  139.9208  167.7241 C.ar    1  UNL1        0.0369
     20 C         140.6419  141.1503  168.0066 C.ar    1  UNL1        0.0028
     21 C         140.6090  142.3065  167.0516 C.ar    1  UNL1       -0.0041
     22 C         139.7646  142.2332  165.8140 C.ar    1  UNL1       -0.0191
     23 C         138.9531  141.0038  165.5314 C.ar    1  UNL1        0.0327
     24 C         139.7318  143.3894  164.8590 C.3     1  UNL1        0.0280
     25 C         141.0126  143.9503  164.3160 C.3     1  UNL1        0.0044
     26 C         141.8315  145.1270  163.8747 C.3     1  UNL1        0.0003
     27 C         142.4122  143.7452  163.8170 C.3     1  UNL1        0.0003
     28 C         138.4180  143.9847  164.4468 C.3     1  UNL1        0.0460
     29 C         138.0259  144.0070  162.9992 C.2     1  UNL1        0.0507
     30 O         138.2466  145.2450  162.1814 O.co2   1  UNL1       -0.5492
     31 O         137.4131  142.7914  162.3693 O.co2   1  UNL1       -0.5492
     32 C         143.2912  138.6233  163.0837 C.3     1  UNL1        0.0473
     33 C         143.8525  139.8874  163.6645 C.3     1  UNL1        0.0060
     34 C         144.8784  140.6722  162.9019 C.3     1  UNL1        0.0004
     35 C         143.3880  140.3664  165.0079 C.3     1  UNL1        0.0004
@<TRIPOS>UNITY_ATOM_ATTR
30 1
charge -1
@<TRIPOS>BOND
     1    14    15    1
     2    15     7    1
     3     7     8   ar
     4     8     9   ar
     5     9     1    1
     6     1     2   ar
     7     2     3   ar
     8     3     4   ar
     9     4    16    1
    10    16    17    1
    11    17    18    1
    12    18    19   ar
    13    19    20   ar
    14    20    21   ar
    15    21    22   ar
    16    22    24    1
    17    24    28    1
    18    28    29    1
    19    29    30   ar
    20    29    31   ar
    21    24    25    1
    22    25    26    1
    23    26    27    1
    24    22    23   ar
    25     4     5   ar
    26     5     6   ar
    27     6    32    1
    28    32    33    1
    29    33    34    1
    30    33    35    1
    31     9    10   ar
    32    10    11    1
    33    10    12   ar
    34    12    13   ar
    35    13     7   ar
    36     6     1   ar
    37    23    18   ar
    38    27    25    1
@<TRIPOS>MOLECULE
*****
 35 38 0 0 0
SMALL
GASTEIGER

@<TRIPOS>ATOM
      1 C         142.7206  139.8510  160.9512 C.ar    1  UNL1        0.0972
      2 N         143.3514  141.2048  160.8121 N.ar    1  UNL1       -0.2412
      3 C         144.0703  141.8205  161.9757 C.ar    1  UNL1        0.1172
      4 C         144.1585  141.0823  163.2786 C.ar    1  UNL1        0.1213
      5 N         143.5278  139.7285  163.4177 N.ar    1  UNL1       -0.2472
      6 C         142.8088  139.1129  162.2540 C.ar    1  UNL1        0.0764
      7 C         142.0343  137.7709  157.6418 C.ar    1  UNL1        0.2252
      8 C         142.7532  138.3865  158.8055 C.ar    1  UNL1        0.0615
      9 C         142.0016  139.2354  159.7875 C.ar    1  UNL1        0.0525
     10 C         140.5310  139.4686  159.6060 C.ar    1  UNL1        0.1608
     11 F         139.7794  140.3175  160.5880 F       1  UNL1       -0.2025
     12 C         139.8121  138.8530  158.4423 C.ar    1  UNL1        0.1316
     13 N         140.5638  138.0041  157.4603 N.ar    1  UNL1       -0.2078
     14 C         142.3648  135.5027  156.4187 C.3     1  UNL1        0.2542
     15 O         142.7860  136.9220  156.6598 O.3     1  UNL1       -0.4561
     16 C         144.8775  141.6980  164.4422 C.3     1  UNL1        0.2524
     17 O         144.1592  142.6555  165.3461 O.3     1  UNL1       -0.4689
     18 C         142.6661  142.5903  165.4734 C.ar    1  UNL1        0.1388
     19 C         141.8051  143.5453  164.7010 C.ar    1  UNL1        0.0369
     20 C         140.3119  143.4800  164.8283 C.ar    1  UNL1        0.0028
     21 C         139.6798  142.4597  165.7280 C.ar    1  UNL1       -0.0041
     22 C         140.5408  141.5047  166.5003 C.ar    1  UNL1       -0.0191
     23 C         142.0339  141.5699  166.3731 C.ar    1  UNL1        0.0327
     24 C         139.9087  140.4844  167.4000 C.3     1  UNL1        0.0280
     25 C         138.8240  139.5910  166.8752 C.3     1  UNL1        0.0044
     26 C         137.7655  138.5553  167.1132 C.3     1  UNL1        0.0003
     27 C         138.0039  139.0794  165.7282 C.3     1  UNL1        0.0003
     28 C         140.3612  140.3574  168.8245 C.3     1  UNL1        0.0460
     29 C         139.4459  140.7637  169.9412 C.2     1  UNL1        0.0507
     30 O         139.3963  142.1950  170.3873 O.co2   1  UNL1       -0.5492
     31 O         138.5802  139.7386  170.6120 O.co2   1  UNL1       -0.5492
     32 C         142.1780  137.7591  162.3932 C.3     1  UNL1        0.0473
     33 C         140.9786  137.5776  163.2757 C.3     1  UNL1        0.0060
     34 C         139.5990  137.7301  162.7068 C.3     1  UNL1        0.0004
     35 C         141.1588  137.2437  164.7269 C.3     1  UNL1        0.0004
@<TRIPOS>UNITY_ATOM_ATTR
30 1
charge -1
@<TRIPOS>BOND
     1    14    15    1
     2    15     7    1
     3     7     8   ar
     4     8     9   ar
     5     9     1    1
     6     1     2   ar
     7     2     3   ar
     8     3     4   ar
     9     4    16    1
    10    16    17    1
    11    17    18    1
    12    18    19   ar
    13    19    20   ar
    14    20    21   ar
    15    21    22   ar
    16    22    24    1
    17    24    28    1
    18    28    29    1
    19    29    30   ar
    20    29    31   ar
    21    24    25    1
    22    25    26    1
    23    26    27    1
    24    22    23   ar
    25     4     5   ar
    26     5     6   ar
    27     6    32    1
    28    32    33    1
    29    33    34    1
    30    33    35    1
    31     9    10   ar
    32    10    11    1
    33    10    12   ar
    34    12    13   ar
    35    13     7   ar
    36     6     1   ar
    37    23    18   ar
    38    27    25    1
@<TRIPOS>MOLECULE
*****
 35 38 0 0 0
SMALL
GASTEIGER

@<TRIPOS>ATOM
      1 C         141.2354  138.5641  161.0782 C.ar    1  UNL1        0.0972
      2 N         139.7412  138.4340  161.0987 N.ar    1  UNL1       -0.2412
      3 C         139.0424  138.0116  162.3569 C.ar    1  UNL1        0.1172
      4 C         139.8377  137.7192  163.5947 C.ar    1  UNL1        0.1213
      5 N         141.3319  137.8493  163.5742 N.ar    1  UNL1       -0.2472
      6 C         142.0308  138.2718  162.3159 C.ar    1  UNL1        0.0764
      7 C         143.0951  138.3757  157.5773 C.ar    1  UNL1        0.2252
      8 C         142.3962  137.9533  158.8355 C.ar    1  UNL1        0.0615
      9 C         141.9343  138.9865  159.8199 C.ar    1  UNL1        0.0525
     10 C         142.1712  140.4422  159.5461 C.ar    1  UNL1        0.1608
     11 F         141.7093  141.4754  160.5305 F       1  UNL1       -0.2025
     12 C         142.8700  140.8645  158.2878 C.ar    1  UNL1        0.1316
     13 N         143.3319  139.8313  157.3034 N.ar    1  UNL1       -0.2078
     14 C         143.0697  135.9283  156.7056 C.3     1  UNL1        0.2542
     15 O         143.5570  137.3425  156.5929 O.3     1  UNL1       -0.4561
     16 C         139.1389  137.2968  164.8529 C.3     1  UNL1        0.2524
     17 O         138.7004  138.3283  165.8498 O.3     1  UNL1       -0.4689
     18 C         139.1841  139.7428  165.7274 C.ar    1  UNL1        0.1388
     19 C         138.3141  140.7796  165.0808 C.ar    1  UNL1        0.0369
     20 C         138.7978  142.1943  164.9584 C.ar    1  UNL1        0.0028
     21 C         140.1515  142.5720  165.4826 C.ar    1  UNL1       -0.0041
     22 C         141.0215  141.5352  166.1292 C.ar    1  UNL1       -0.0191
     23 C         140.5378  140.1206  166.2516 C.ar    1  UNL1        0.0327
     24 C         142.3751  141.9129  166.6534 C.3     1  UNL1        0.0280
     25 C         143.3015  142.7395  165.8117 C.3     1  UNL1        0.0044
     26 C         144.6301  143.4074  165.6148 C.3     1  UNL1        0.0003
     27 C         143.5774  143.5034  164.5506 C.3     1  UNL1        0.0003
     28 C         142.8025  141.4641  168.0194 C.3     1  UNL1        0.0460
     29 C         143.0169  142.4738  169.1077 C.2     1  UNL1        0.0507
     30 O         141.8428  143.1827  169.7150 O.co2   1  UNL1       -0.5492
     31 O         144.4055  142.7746  169.5888 O.co2   1  UNL1       -0.5492
     32 C         143.5250  138.4018  162.2954 C.3     1  UNL1        0.0473
     33 C         144.1907  139.5212  163.0397 C.3     1  UNL1        0.0060
     34 C         144.6427  140.7472  162.3031 C.3     1  UNL1        0.0004
     35 C         144.4043  139.4145  164.5206 C.3     1  UNL1        0.0004
@<TRIPOS>UNITY_ATOM_ATTR
30 1
charge -1
@<TRIPOS>BOND
     1    14    15    1
     2    15     7    1
     3     7     8   ar
     4     8     9   ar
     5     9     1    1
     6     1     2   ar
     7     2     3   ar
     8     3     4   ar
     9     4    16    1
    10    16    17    1
    11    17    18    1
    12    18    19   ar
    13    19    20   ar
    14    20    21   ar
    15    21    22   ar
    16    22    24    1
    17    24    28    1
    18    28    29    1
    19    29    30   ar
    20    29    31   ar
    21    24    25    1
    22    25    26    1
    23    26    27    1
    24    22    23   ar
    25     4     5   ar
    26     5     6   ar
    27     6    32    1
    28    32    33    1
    29    33    34    1
    30    33    35    1
    31     9    10   ar
    32    10    11    1
    33    10    12   ar
    34    12    13   ar
    35    13     7   ar
    36     6     1   ar
    37    23    18   ar
    38    27    25    1
@<TRIPOS>MOLECULE
*****
 35 38 0 0 0
SMALL
GASTEIGER

@<TRIPOS>ATOM
      1 C         141.5852  144.1818  161.0554 C.ar    1  UNL1        0.0972
      2 N         143.0552  143.8838  161.0667 N.ar    1  UNL1       -0.2412
      3 C         143.8083  143.8724  162.3638 C.ar    1  UNL1        0.1172
      4 C         143.0914  144.1592  163.6499 C.ar    1  UNL1        0.1213
      5 N         141.6213  144.4573  163.6387 N.ar    1  UNL1       -0.2472
      6 C         140.8682  144.4686  162.3414 C.ar    1  UNL1        0.0764
      7 C         140.1028  145.4260  157.5907 C.ar    1  UNL1        0.2252
      8 C         140.8558  145.4147  158.8879 C.ar    1  UNL1        0.0615
      9 C         140.8321  144.1932  159.7582 C.ar    1  UNL1        0.0525
     10 C         140.0553  142.9831  159.3313 C.ar    1  UNL1        0.1608
     11 F         140.0315  141.7616  160.2016 F       1  UNL1       -0.2025
     12 C         139.3022  142.9945  158.0341 C.ar    1  UNL1        0.1316
     13 N         139.3260  144.2159  157.1638 N.ar    1  UNL1       -0.2078
     14 C         138.9534  146.9649  155.8412 C.3     1  UNL1        0.2542
     15 O         140.1265  146.6475  156.7204 O.3     1  UNL1       -0.4561
     16 C         143.8444  144.1478  164.9470 C.3     1  UNL1        0.2524
     17 O         144.4530  142.8723  165.4498 O.3     1  UNL1       -0.4689
     18 C         143.6598  141.5997  165.4189 C.ar    1  UNL1        0.1388
     19 C         144.0077  140.5228  164.4343 C.ar    1  UNL1        0.0369
     20 C         143.2144  139.2500  164.4034 C.ar    1  UNL1        0.0028
     21 C         142.0733  139.0542  165.3570 C.ar    1  UNL1       -0.0041
     22 C         141.7253  140.1311  166.3416 C.ar    1  UNL1       -0.0191
     23 C         142.5186  141.4038  166.3725 C.ar    1  UNL1        0.0327
     24 C         140.5842  139.9353  167.2952 C.3     1  UNL1        0.0280
     25 C         139.2255  139.5713  166.7742 C.3     1  UNL1        0.0044
     26 C         137.9257  138.8400  166.9349 C.3     1  UNL1        0.0003
     27 C         138.1720  139.6720  165.7113 C.3     1  UNL1        0.0003
     28 C         140.8017  140.1035  168.7698 C.3     1  UNL1        0.0460
     29 C         139.7597  140.7814  169.6091 C.2     1  UNL1        0.0507
     30 O         139.7892  142.2710  169.7829 O.co2   1  UNL1       -0.5492
     31 O         138.6881  139.9697  170.2747 O.co2   1  UNL1       -0.5492
     32 C         139.3982  144.7667  162.3302 C.3     1  UNL1        0.0473
     33 C         138.4556  143.9226  163.1358 C.3     1  UNL1        0.0060
     34 C         137.8075  142.7207  162.5148 C.3     1  UNL1        0.0004
     35 C         138.1610  144.2802  164.5624 C.3     1  UNL1        0.0004
@<TRIPOS>UNITY_ATOM_ATTR
30 1
charge -1
@<TRIPOS>BOND
     1    14    15    1
     2    15     7    1
     3     7     8   ar
     4     8     9   ar
     5     9     1    1
     6     1     2   ar
     7     2     3   ar
     8     3     4   ar
     9     4    16    1
    10    16    17    1
    11    17    18    1
    12    18    19   ar
    13    19    20   ar
    14    20    21   ar
    15    21    22   ar
    16    22    24    1
    17    24    28    1
    18    28    29    1
    19    29    30   ar
    20    29    31   ar
    21    24    25    1
    22    25    26    1
    23    26    27    1
    24    22    23   ar
    25     4     5   ar
    26     5     6   ar
    27     6    32    1
    28    32    33    1
    29    33    34    1
    30    33    35    1
    31     9    10   ar
    32    10    11    1
    33    10    12   ar
    34    12    13   ar
    35    13     7   ar
    36     6     1   ar
    37    23    18   ar
    38    27    25    1
@<TRIPOS>MOLECULE
*****
 35 38 0 0 0
SMALL
GASTEIGER

@<TRIPOS>ATOM
      1 C         141.2911  138.5288  161.3227 C.ar    1  UNL1        0.0972
      2 N         141.8667  137.6541  162.3967 N.ar    1  UNL1       -0.2412
      3 C         141.0739  137.3705  163.6381 C.ar    1  UNL1        0.1172
      4 C         139.7054  137.9615  163.8054 C.ar    1  UNL1        0.1213
      5 N         139.1298  138.8362  162.7313 N.ar    1  UNL1       -0.2472
      6 C         139.9227  139.1198  161.4899 C.ar    1  UNL1        0.0764
      7 C         142.6451  138.2842  157.6002 C.ar    1  UNL1        0.2252
      8 C         141.8522  138.0006  158.8415 C.ar    1  UNL1        0.0615
      9 C         142.0840  138.8125  160.0813 C.ar    1  UNL1        0.0525
     10 C         143.1087  139.9079  160.0798 C.ar    1  UNL1        0.1608
     11 F         143.3405  140.7197  161.3196 F       1  UNL1       -0.2025
     12 C         143.9015  140.1915  158.8385 C.ar    1  UNL1        0.1316
     13 N         143.6697  139.3796  157.5987 N.ar    1  UNL1       -0.2078
     14 C         142.3415  135.9766  156.4458 C.3     1  UNL1        0.2542
     15 O         142.4133  137.4724  156.3603 O.3     1  UNL1       -0.4561
     16 C         138.9126  137.6778  165.0467 C.3     1  UNL1        0.2524
     17 O         138.2247  138.7978  165.7695 O.3     1  UNL1       -0.4689
     18 C         139.0075  139.9994  166.2091 C.ar    1  UNL1        0.1388
     19 C         139.7581  139.9716  167.5075 C.ar    1  UNL1        0.0369
     20 C         140.5409  141.1733  167.9471 C.ar    1  UNL1        0.0028
     21 C         140.5731  142.4027  167.0883 C.ar    1  UNL1       -0.0041
     22 C         139.8225  142.4305  165.7899 C.ar    1  UNL1       -0.0191
     23 C         139.0397  141.2289  165.3503 C.ar    1  UNL1        0.0327
     24 C         139.8547  143.6598  164.9311 C.3     1  UNL1        0.0280
     25 C         141.1656  144.1937  164.4346 C.3     1  UNL1        0.0044
     26 C         142.6596  144.0932  164.3465 C.3     1  UNL1        0.0003
     27 C         141.9420  145.2189  163.6626 C.3     1  UNL1        0.0003
     28 C         138.5760  144.3554  164.5689 C.3     1  UNL1        0.0460
     29 C         138.0183  144.2256  163.1825 C.2     1  UNL1        0.0507
     30 O         138.2504  145.3132  162.1759 O.co2   1  UNL1       -0.5492
     31 O         137.2286  143.0081  162.8027 O.co2   1  UNL1       -0.5492
     32 C         139.3471  139.9945  160.4159 C.3     1  UNL1        0.0473
     33 C         139.4743  141.4859  160.5148 C.3     1  UNL1        0.0060
     34 C         138.6603  142.3692  159.6164 C.3     1  UNL1        0.0004
     35 C         140.4155  142.0938  161.5120 C.3     1  UNL1        0.0004
@<TRIPOS>UNITY_ATOM_ATTR
30 1
charge -1
@<TRIPOS>BOND
     1    14    15    1
     2    15     7    1
     3     7     8   ar
     4     8     9   ar
     5     9     1    1
     6     1     2   ar
     7     2     3   ar
     8     3     4   ar
     9     4    16    1
    10    16    17    1
    11    17    18    1
    12    18    19   ar
    13    19    20   ar
    14    20    21   ar
    15    21    22   ar
    16    22    24    1
    17    24    28    1
    18    28    29    1
    19    29    30   ar
    20    29    31   ar
    21    24    25    1
    22    25    26    1
    23    26    27    1
    24    22    23   ar
    25     4     5   ar
    26     5     6   ar
    27     6    32    1
    28    32    33    1
    29    33    34    1
    30    33    35    1
    31     9    10   ar
    32    10    11    1
    33    10    12   ar
    34    12    13   ar
    35    13     7   ar
    36     6     1   ar
    37    23    18   ar
    38    27    25    1
@<TRIPOS>MOLECULE
*****
 35 38 0 0 0
SMALL
GASTEIGER

@<TRIPOS>ATOM
      1 C         141.7219  143.9973  161.3175 C.ar    1  UNL1        0.0972
      2 N         143.1612  143.5779  161.2674 N.ar    1  UNL1       -0.2412
      3 C         144.0377  143.7596  162.4710 C.ar    1  UNL1        0.1172
      4 C         143.4749  144.3607  163.7248 C.ar    1  UNL1        0.1213
      5 N         142.0356  144.7801  163.7750 N.ar    1  UNL1       -0.2472
      6 C         141.1590  144.5984  162.5713 C.ar    1  UNL1        0.0764
      7 C         139.0933  142.4213  158.7962 C.ar    1  UNL1        0.2252
      8 C         139.9698  142.6030  159.9998 C.ar    1  UNL1        0.0615
      9 C         140.8453  143.8156  160.1138 C.ar    1  UNL1        0.0525
     10 C         140.8444  144.8465  159.0243 C.ar    1  UNL1        0.1608
     11 F         141.7199  146.0591  159.1383 F       1  UNL1       -0.2025
     12 C         139.9679  144.6648  157.8207 C.ar    1  UNL1        0.1316
     13 N         139.0924  143.4521  157.7066 N.ar    1  UNL1       -0.2078
     14 C         137.3873  140.9963  157.4513 C.3     1  UNL1        0.2542
     15 O         138.2178  141.2087  158.6822 O.3     1  UNL1       -0.4561
     16 C         144.3514  144.5424  164.9284 C.3     1  UNL1        0.2524
     17 O         144.2216  143.6122  166.0980 O.3     1  UNL1       -0.4689
     18 C         143.5008  142.3061  165.9412 C.ar    1  UNL1        0.1388
     19 C         144.0507  141.2510  165.0278 C.ar    1  UNL1        0.0369
     20 C         143.3298  139.9449  164.8710 C.ar    1  UNL1        0.0028
     21 C         142.0593  139.6939  165.6277 C.ar    1  UNL1       -0.0041
     22 C         141.5094  140.7491  166.5411 C.ar    1  UNL1       -0.0191
     23 C         142.2302  142.0551  166.6979 C.ar    1  UNL1        0.0327
     24 C         140.2388  140.4981  167.2978 C.3     1  UNL1        0.0280
     25 C         139.0846  139.8196  166.6214 C.3     1  UNL1        0.0044
     26 C         138.1549  139.6963  165.4508 C.3     1  UNL1        0.0003
     27 C         138.0153  138.7677  166.6206 C.3     1  UNL1        0.0003
     28 C         140.1224  140.9257  168.7309 C.3     1  UNL1        0.0460
     29 C         140.5151  139.9826  169.8292 C.2     1  UNL1        0.0507
     30 O         141.8379  139.2773  169.7749 O.co2   1  UNL1       -0.5492
     31 O         139.5852  139.7448  170.9819 O.co2   1  UNL1       -0.5492
     32 C         139.7197  145.0178  162.6214 C.3     1  UNL1        0.0473
     33 C         138.7697  144.3282  163.5554 C.3     1  UNL1        0.0060
     34 C         137.8243  143.2886  163.0307 C.3     1  UNL1        0.0004
     35 C         138.7652  144.6783  165.0139 C.3     1  UNL1        0.0004
@<TRIPOS>UNITY_ATOM_ATTR
30 1
charge -1
@<TRIPOS>BOND
     1    14    15    1
     2    15     7    1
     3     7     8   ar
     4     8     9   ar
     5     9     1    1
     6     1     2   ar
     7     2     3   ar
     8     3     4   ar
     9     4    16    1
    10    16    17    1
    11    17    18    1
    12    18    19   ar
    13    19    20   ar
    14    20    21   ar
    15    21    22   ar
    16    22    24    1
    17    24    28    1
    18    28    29    1
    19    29    30   ar
    20    29    31   ar
    21    24    25    1
    22    25    26    1
    23    26    27    1
    24    22    23   ar
    25     4     5   ar
    26     5     6   ar
    27     6    32    1
    28    32    33    1
    29    33    34    1
    30    33    35    1
    31     9    10   ar
    32    10    11    1
    33    10    12   ar
    34    12    13   ar
    35    13     7   ar
    36     6     1   ar
    37    23    18   ar
    38    27    25    1
@<TRIPOS>MOLECULE
*****
 35 38 0 0 0
SMALL
GASTEIGER

@<TRIPOS>ATOM
      1 C         143.1870  142.7922  160.1129 C.ar    1  UNL1        0.0972
      2 N         142.0637  143.7419  159.8191 N.ar    1  UNL1       -0.2412
      3 C         141.4565  144.5509  160.9266 C.ar    1  UNL1        0.1172
      4 C         141.9724  144.4102  162.3281 C.ar    1  UNL1        0.1213
      5 N         143.0957  143.4605  162.6219 N.ar    1  UNL1       -0.2472
      6 C         143.7030  142.6515  161.5143 C.ar    1  UNL1        0.0764
      7 C         145.5803  141.7075  157.1387 C.ar    1  UNL1        0.2252
      8 C         144.9730  142.5165  158.2463 C.ar    1  UNL1        0.0615
      9 C         143.7943  141.9831  159.0053 C.ar    1  UNL1        0.0525
     10 C         143.2228  140.6408  158.6567 C.ar    1  UNL1        0.1608
     11 F         142.0441  140.1074  159.4157 F       1  UNL1       -0.2025
     12 C         143.8301  139.8319  157.5492 C.ar    1  UNL1        0.1316
     13 N         145.0089  140.3652  156.7902 N.ar    1  UNL1       -0.2078
     14 C         146.5667  142.8343  155.0156 C.3     1  UNL1        0.2542
     15 O         146.7591  142.2409  156.3798 O.3     1  UNL1       -0.4561
     16 C         141.3652  145.2192  163.4356 C.3     1  UNL1        0.2524
     17 O         140.9085  144.5436  164.6945 O.3     1  UNL1       -0.4689
     18 C         140.0157  143.3406  164.6186 C.ar    1  UNL1        0.1388
     19 C         138.5663  143.5032  164.2679 C.ar    1  UNL1        0.0369
     20 C         137.6735  142.3002  164.1920 C.ar    1  UNL1        0.0028
     21 C         138.2300  140.9347  164.4669 C.ar    1  UNL1       -0.0041
     22 C         139.6793  140.7721  164.8177 C.ar    1  UNL1       -0.0191
     23 C         140.5721  141.9750  164.8935 C.ar    1  UNL1        0.0327
     24 C         140.2358  139.4066  165.0925 C.3     1  UNL1        0.0280
     25 C         141.5417  139.2605  165.8159 C.3     1  UNL1        0.0044
     26 C         142.4563  139.6539  166.9378 C.3     1  UNL1        0.0003
     27 C         142.8890  138.6143  165.9469 C.3     1  UNL1        0.0003
     28 C         139.4864  138.1870  164.6441 C.3     1  UNL1        0.0460
     29 C         139.6313  137.6937  163.2349 C.2     1  UNL1        0.0507
     30 O         140.9107  137.0462  162.7948 O.co2   1  UNL1       -0.5492
     31 O         138.4966  137.8479  162.2659 O.co2   1  UNL1       -0.5492
     32 C         144.8263  141.7018  161.8082 C.3     1  UNL1        0.0473
     33 C         144.6183  140.5684  162.7686 C.3     1  UNL1        0.0060
     34 C         145.3673  140.5394  164.0679 C.3     1  UNL1        0.0004
     35 C         143.6614  139.4642  162.4297 C.3     1  UNL1        0.0004
@<TRIPOS>UNITY_ATOM_ATTR
30 1
charge -1
@<TRIPOS>BOND
     1    14    15    1
     2    15     7    1
     3     7     8   ar
     4     8     9   ar
     5     9     1    1
     6     1     2   ar
     7     2     3   ar
     8     3     4   ar
     9     4    16    1
    10    16    17    1
    11    17    18    1
    12    18    19   ar
    13    19    20   ar
    14    20    21   ar
    15    21    22   ar
    16    22    24    1
    17    24    28    1
    18    28    29    1
    19    29    30   ar
    20    29    31   ar
    21    24    25    1
    22    25    26    1
    23    26    27    1
    24    22    23   ar
    25     4     5   ar
    26     5     6   ar
    27     6    32    1
    28    32    33    1
    29    33    34    1
    30    33    35    1
    31     9    10   ar
    32    10    11    1
    33    10    12   ar
    34    12    13   ar
    35    13     7   ar
    36     6     1   ar
    37    23    18   ar
    38    27    25    1
@<TRIPOS>MOLECULE
*****
 35 38 0 0 0
SMALL
GASTEIGER

@<TRIPOS>ATOM
      1 C         140.2846  141.6320  160.5254 C.ar    1  UNL1        0.0972
      2 N         141.3997  140.6555  160.2950 N.ar    1  UNL1       -0.2412
      3 C         141.3868  139.3252  160.9878 C.ar    1  UNL1        0.1172
      4 C         140.2588  138.9713  161.9110 C.ar    1  UNL1        0.1213
      5 N         139.1437  139.9477  162.1414 N.ar    1  UNL1       -0.2472
      6 C         139.1566  141.2781  161.4486 C.ar    1  UNL1        0.0764
      7 C         139.7426  144.4240  157.7575 C.ar    1  UNL1        0.2252
      8 C         139.7297  143.0937  158.4504 C.ar    1  UNL1        0.0615
      9 C         140.2976  142.9624  159.8325 C.ar    1  UNL1        0.0525
     10 C         140.8784  144.1613  160.5218 C.ar    1  UNL1        0.1608
     11 F         141.4463  144.0300  161.9039 F       1  UNL1       -0.2025
     12 C         140.8913  145.4916  159.8289 C.ar    1  UNL1        0.1316
     13 N         140.3234  145.6229  158.4468 N.ar    1  UNL1       -0.2078
     14 C         139.0843  145.9048  155.7268 C.3     1  UNL1        0.2542
     15 O         139.1747  144.5553  156.3754 O.3     1  UNL1       -0.4561
     16 C         140.2459  137.6409  162.6038 C.3     1  UNL1        0.2524
     17 O         140.7626  137.5209  164.0069 O.3     1  UNL1       -0.4689
     18 C         140.0110  138.1546  165.1397 C.ar    1  UNL1        0.1388
     19 C         138.6249  137.6885  165.4739 C.ar    1  UNL1        0.0369
     20 C         137.8733  138.3223  166.6068 C.ar    1  UNL1        0.0028
     21 C         138.5077  139.4220  167.4055 C.ar    1  UNL1       -0.0041
     22 C         139.8937  139.8881  167.0714 C.ar    1  UNL1       -0.0191
     23 C         140.6454  139.2544  165.9386 C.ar    1  UNL1        0.0327
     24 C         140.5281  140.9879  167.8702 C.3     1  UNL1        0.0280
     25 C         141.7184  141.7201  167.3251 C.3     1  UNL1        0.0044
     26 C         143.1443  142.1651  167.4618 C.3     1  UNL1        0.0003
     27 C         142.3540  142.5434  166.2443 C.3     1  UNL1        0.0003
     28 C         139.9722  141.3554  169.2140 C.3     1  UNL1        0.0460
     29 C         140.4322  142.6082  169.8988 C.2     1  UNL1        0.0507
     30 O         141.2676  142.5202  171.1415 O.co2   1  UNL1       -0.5492
     31 O         140.0568  143.9491  169.3409 O.co2   1  UNL1       -0.5492
     32 C         138.0415  142.2546  161.6790 C.3     1  UNL1        0.0473
     33 C         137.9834  143.0389  162.9563 C.3     1  UNL1        0.0060
     34 C         138.1664  144.5275  162.9313 C.3     1  UNL1        0.0004
     35 C         137.7423  142.3347  164.2585 C.3     1  UNL1        0.0004
@<TRIPOS>UNITY_ATOM_ATTR
30 1
charge -1
@<TRIPOS>BOND
     1    14    15    1
     2    15     7    1
     3     7     8   ar
     4     8     9   ar
     5     9     1    1
     6     1     2   ar
     7     2     3   ar
     8     3     4   ar
     9     4    16    1
    10    16    17    1
    11    17    18    1
    12    18    19   ar
    13    19    20   ar
    14    20    21   ar
    15    21    22   ar
    16    22    24    1
    17    24    28    1
    18    28    29    1
    19    29    30   ar
    20    29    31   ar
    21    24    25    1
    22    25    26    1
    23    26    27    1
    24    22    23   ar
    25     4     5   ar
    26     5     6   ar
    27     6    32    1
    28    32    33    1
    29    33    34    1
    30    33    35    1
    31     9    10   ar
    32    10    11    1
    33    10    12   ar
    34    12    13   ar
    35    13     7   ar
    36     6     1   ar
    37    23    18   ar
    38    27    25    1
@<TRIPOS>MOLECULE
*****
 35 38 0 0 0
SMALL
GASTEIGER

@<TRIPOS>ATOM
      1 C         140.9339  142.1722  165.8593 C.ar    1  UNL1        0.0972
      2 N         140.2808  143.4201  165.3434 N.ar    1  UNL1       -0.2412
      3 C         140.9993  144.2886  164.3537 C.ar    1  UNL1        0.1172
      4 C         142.3710  143.9091  163.8798 C.ar    1  UNL1        0.1213
      5 N         143.0241  142.6611  164.3957 N.ar    1  UNL1       -0.2472
      6 C         142.3055  141.7927  165.3855 C.ar    1  UNL1        0.0764
      7 C         139.6352  140.7007  169.3086 C.ar    1  UNL1        0.2252
      8 C         140.3537  141.5690  168.3189 C.ar    1  UNL1        0.0615
      9 C         140.2153  141.3038  166.8490 C.ar    1  UNL1        0.0525
     10 C         139.3583  140.1702  166.3689 C.ar    1  UNL1        0.1608
     11 F         139.2199  139.9050  164.8990 F       1  UNL1       -0.2025
     12 C         138.6398  139.3019  167.3586 C.ar    1  UNL1        0.1316
     13 N         138.7782  139.5671  168.8285 N.ar    1  UNL1       -0.2078
     14 C         140.9341  141.7668  171.2900 C.3     1  UNL1        0.2542
     15 O         139.7736  140.9659  170.7785 O.3     1  UNL1       -0.4561
     16 C         143.0896  144.7775  162.8901 C.3     1  UNL1        0.2524
     17 O         143.3020  144.2962  161.4854 O.3     1  UNL1       -0.4689
     18 C         142.2565  143.4557  160.8144 C.ar    1  UNL1        0.1388
     19 C         141.1674  144.1091  160.0163 C.ar    1  UNL1        0.0369
     20 C         140.1218  143.2685  159.3452 C.ar    1  UNL1        0.0028
     21 C         140.1654  141.7745  159.4723 C.ar    1  UNL1       -0.0041
     22 C         141.2545  141.1211  160.2704 C.ar    1  UNL1       -0.0191
     23 C         142.3000  141.9617  160.9414 C.ar    1  UNL1        0.0327
     24 C         141.2980  139.6272  160.3975 C.3     1  UNL1        0.0280
     25 C         142.6060  138.9325  160.6354 C.3     1  UNL1        0.0044
     26 C         144.0990  138.9849  160.7704 C.3     1  UNL1        0.0003
     27 C         143.3785  137.6770  160.9126 C.3     1  UNL1        0.0003
     28 C         140.0336  138.8278  160.2866 C.3     1  UNL1        0.0460
     29 C         139.3438  138.3396  161.5259 C.2     1  UNL1        0.0507
     30 O         138.0003  138.8902  161.9028 O.co2   1  UNL1       -0.5492
     31 O         139.9974  137.3008  162.3883 O.co2   1  UNL1       -0.5492
     32 C         142.9586  140.5448  165.9014 C.3     1  UNL1        0.0473
     33 C         143.4034  139.4799  164.9431 C.3     1  UNL1        0.0060
     34 C         142.4409  138.4166  164.5039 C.3     1  UNL1        0.0004
     35 C         144.8107  139.4784  164.4239 C.3     1  UNL1        0.0004
@<TRIPOS>UNITY_ATOM_ATTR
30 1
charge -1
@<TRIPOS>BOND
     1    14    15    1
     2    15     7    1
     3     7     8   ar
     4     8     9   ar
     5     9     1    1
     6     1     2   ar
     7     2     3   ar
     8     3     4   ar
     9     4    16    1
    10    16    17    1
    11    17    18    1
    12    18    19   ar
    13    19    20   ar
    14    20    21   ar
    15    21    22   ar
    16    22    24    1
    17    24    28    1
    18    28    29    1
    19    29    30   ar
    20    29    31   ar
    21    24    25    1
    22    25    26    1
    23    26    27    1
    24    22    23   ar
    25     4     5   ar
    26     5     6   ar
    27     6    32    1
    28    32    33    1
    29    33    34    1
    30    33    35    1
    31     9    10   ar
    32    10    11    1
    33    10    12   ar
    34    12    13   ar
    35    13     7   ar
    36     6     1   ar
    37    23    18   ar
    38    27    25    1
