@<TRIPOS>MOLECULE
*****
 41 47 0 0 0
SMALL
GASTEIGER

@<TRIPOS>ATOM
      1 C         140.0551  141.8248  161.0581 C.3     1  UNL1        0.1708
      2 N         140.7834  141.1800  159.9162 N.3     1  UNL1       -0.2797
      3 C         141.0790  139.7098  159.9498 C.3     1  UNL1        0.1167
      4 C         140.6464  138.8844  161.1252 C.3     1  UNL1        0.0511
      5 C         139.9181  139.5292  162.2671 C.2     1  UNL1       -0.0037
      6 C         139.6225  140.9994  162.2335 C.2     1  UNL1        0.0800
      7 N         138.8937  141.3546  163.4955 N.2     1  UNL1       -0.2519
      8 C         138.7389  140.1039  164.3091 C.2     1  UNL1        0.0627
      9 C         138.1033  139.8465  165.6431 C.3     1  UNL1        0.0717
     10 C         138.1007  138.4611  166.2179 C.2     1  UNL1       -0.0198
     11 C         138.7339  137.3329  165.4586 C.2     1  UNL1       -0.0042
     12 C         139.3695  137.5903  164.1246 C.2     1  UNL1        0.0006
     13 C         139.3720  138.9757  163.5498 C.2     1  UNL1        0.0111
     14 H         141.6800  141.6588  159.8309 H       1  UNL1        0.1246
     15 C         139.3978  142.8840  161.8924 C.ar    1  UNL1        0.2512
     16 N         138.0023  143.4050  161.7167 N.ar    1  UNL1       -0.1066
     17 N         137.7627  144.4512  162.7647 N.ar    1  UNL1       -0.0718
     18 C         139.0102  144.5767  163.5881 C.ar    1  UNL1        0.4138
     19 O         139.2117  145.5073  164.7471 O.3     1  UNL1       -0.4642
     20 O         140.0208  143.6081  163.0490 O.2     1  UNL1       -0.3908
     21 H         138.5197  146.0799  165.0140 H       1  UNL1        0.2970
     22 C         141.8073  139.0650  158.8079 C.ar    1  UNL1        0.1319
     23 N         141.6872  137.6316  158.3827 N.ar    1  UNL1       -0.2282
     24 C         142.5892  137.4210  157.2028 C.ar    1  UNL1        0.1171
     25 C         143.2667  138.7243  156.8988 C.ar    1  UNL1        0.0942
     26 N         142.7834  139.7403  157.8909 N.ar    1  UNL1       -0.3385
     27 H         143.0586  140.6847  157.9327 H       1  UNL1        0.1672
     28 C         142.7801  136.1331  156.4577 C.ar    1  UNL1        0.1006
     29 C         142.4094  136.0440  155.0070 C.ar    1  UNL1        0.0230
     30 C         142.6003  134.7562  154.2619 C.ar    1  UNL1        0.0328
     31 C         143.1620  133.5577  154.9675 C.ar    1  UNL1        0.1592
     32 F         143.3529  132.2698  154.2224 F       1  UNL1       -0.2025
     33 C         143.5327  133.6468  156.4182 C.ar    1  UNL1        0.1284
     34 N         143.3418  134.9346  157.1633 N.ar    1  UNL1       -0.2399
     35 N         140.1092  144.5569  158.3017 N.ar    1  UNL1       -0.2497
     36 C         139.6276  143.2382  158.8300 C.ar    1  UNL1        0.0944
     37 C         140.2595  143.0181  160.1725 C.ar    1  UNL1        0.0439
     38 C         141.1316  144.2007  160.4739 C.ar    1  UNL1        0.1194
     39 N         141.0387  145.1518  159.3176 N.ar    1  UNL1       -0.1679
     40 C         139.7494  146.6636  156.8243 C.3     1  UNL1        0.0284
     41 C         139.7282  145.1727  156.9880 C.3     1  UNL1        0.1276
@<TRIPOS>BOND
     1    40    41    1
     2    41    35    1
     3    35    36   ar
     4    36    37   ar
     5     1    37    1
     6     1    15    1
     7    15    16   ar
     8    16    17   ar
     9    17    18   ar
    10    18    19    1
    11    18    20   ar
    12     1     2    1
    13     2     3    1
    14     3    22    1
    15    22    23   ar
    16    23    24   ar
    17    24    28    1
    18    28    29   ar
    19    29    30   ar
    20    30    31   ar
    21    31    32    1
    22    31    33   ar
    23    33    34   ar
    24    24    25   ar
    25    25    26   ar
    26     3     4    1
    27     4     5    1
    28     5     6    2
    29     6     7    1
    30     7     8    2
    31     8     9    1
    32     9    10    1
    33    10    11    2
    34    11    12    1
    35    12    13    2
    36    37    38   ar
    37    38    39   ar
    38    39    35   ar
    39     6     1    1
    40    13     8    1
    41    20    15   ar
    42    26    22   ar
    43    13     5    1
    44    34    28   ar
    45    19    21    1
    46     2    14    1
    47    26    27    1
@<TRIPOS>MOLECULE
*****
 41 47 0 0 0
SMALL
GASTEIGER

@<TRIPOS>ATOM
      1 C         142.4249  142.5695  160.2365 C.3     1  UNL1        0.1708
      2 N         141.8990  143.2206  158.9918 N.3     1  UNL1       -0.2797
      3 C         140.7310  144.1584  159.0721 C.3     1  UNL1        0.1167
      4 C         140.0890  144.4450  160.3972 C.3     1  UNL1        0.0511
      5 C         140.6149  143.7939  161.6419 C.2     1  UNL1       -0.0037
      6 C         141.7829  142.8561  161.5616 C.2     1  UNL1        0.0800
      7 N         142.0800  142.3661  162.9478 N.2     1  UNL1       -0.2519
      8 C         141.0957  143.0011  163.8849 C.2     1  UNL1        0.0627
      9 C         140.9070  142.8897  165.3687 C.3     1  UNL1        0.0717
     10 C         139.8128  143.6608  166.0455 C.2     1  UNL1       -0.0198
     11 C         138.9073  144.5433  165.2384 C.2     1  UNL1       -0.0042
     12 C         139.0960  144.6546  163.7545 C.2     1  UNL1        0.0006
     13 C         140.1902  143.8835  163.0777 C.2     1  UNL1        0.0111
     14 H         141.6298  142.4687  158.3574 H       1  UNL1        0.1246
     15 C         143.2765  141.7158  161.1288 C.ar    1  UNL1        0.2512
     16 N         144.6413  142.0657  161.6432 N.ar    1  UNL1       -0.1066
     17 N         145.1210  140.9284  162.4956 N.ar    1  UNL1       -0.0718
     18 C         144.0526  139.8756  162.5079 C.ar    1  UNL1        0.4138
     19 O         144.1136  138.5661  163.2369 O.3     1  UNL1       -0.4642
     20 O         142.9126  140.3622  161.6631 O.2     1  UNL1       -0.3908
     21 H         144.8710  138.3464  163.7430 H       1  UNL1        0.2970
     22 C         140.2050  144.8097  157.8274 C.ar    1  UNL1        0.1319
     23 N         140.3051  146.2666  157.4850 N.ar    1  UNL1       -0.2282
     24 C         139.6486  146.4757  156.1525 C.ar    1  UNL1        0.1171
     25 C         139.1429  145.1480  155.6715 C.ar    1  UNL1        0.0942
     26 N         139.4868  144.1183  156.7067 N.ar    1  UNL1       -0.3385
     27 H         139.2778  143.1574  156.6589 H       1  UNL1        0.1672
     28 C         139.5204  147.7830  155.4283 C.ar    1  UNL1        0.1006
     29 C         140.1138  147.9438  154.0601 C.ar    1  UNL1        0.0230
     30 C         139.9856  149.2510  153.3358 C.ar    1  UNL1        0.0328
     31 C         139.2640  150.3975  153.9797 C.ar    1  UNL1        0.1592
     32 F         139.1358  151.7049  153.2555 F       1  UNL1       -0.2025
     33 C         138.6705  150.2368  155.3479 C.ar    1  UNL1        0.1284
     34 N         138.7987  148.9295  156.0722 N.ar    1  UNL1       -0.2399
     35 N         145.1111  141.7657  157.5527 N.ar    1  UNL1       -0.2497
     36 C         144.4080  142.7385  158.4523 C.ar    1  UNL1        0.0944
     37 C         143.3627  141.9864  159.2214 C.ar    1  UNL1        0.0439
     38 C         143.4198  140.5487  158.7972 C.ar    1  UNL1        0.1194
     39 N         144.5004  140.4123  157.7658 N.ar    1  UNL1       -0.1679
     40 C         147.4477  142.8089  157.1028 C.3     1  UNL1        0.0284
     41 C         146.2288  142.0894  156.6060 C.3     1  UNL1        0.1276
@<TRIPOS>BOND
     1    40    41    1
     2    41    35    1
     3    35    36   ar
     4    36    37   ar
     5     1    37    1
     6     1    15    1
     7    15    16   ar
     8    16    17   ar
     9    17    18   ar
    10    18    19    1
    11    18    20   ar
    12     1     2    1
    13     2     3    1
    14     3    22    1
    15    22    23   ar
    16    23    24   ar
    17    24    28    1
    18    28    29   ar
    19    29    30   ar
    20    30    31   ar
    21    31    32    1
    22    31    33   ar
    23    33    34   ar
    24    24    25   ar
    25    25    26   ar
    26     3     4    1
    27     4     5    1
    28     5     6    2
    29     6     7    1
    30     7     8    2
    31     8     9    1
    32     9    10    1
    33    10    11    2
    34    11    12    1
    35    12    13    2
    36    37    38   ar
    37    38    39   ar
    38    39    35   ar
    39     6     1    1
    40    13     8    1
    41    20    15   ar
    42    26    22   ar
    43    13     5    1
    44    34    28   ar
    45    19    21    1
    46     2    14    1
    47    26    27    1
@<TRIPOS>MOLECULE
*****
 41 47 0 0 0
SMALL
GASTEIGER

@<TRIPOS>ATOM
      1 C         142.5729  143.6917  158.9382 C.3     1  UNL1        0.1708
      2 N         143.4290  143.2925  157.7730 N.3     1  UNL1       -0.2797
      3 C         144.7281  142.5797  158.0063 C.3     1  UNL1        0.1167
      4 C         145.1710  142.2661  159.4047 C.3     1  UNL1        0.0511
      5 C         144.3148  142.6653  160.5699 C.2     1  UNL1       -0.0037
      6 C         143.0158  143.3781  160.3366 C.2     1  UNL1        0.0800
      7 N         142.3874  143.6454  161.6721 N.2     1  UNL1       -0.2519
      8 C         143.2981  143.0979  162.7308 C.2     1  UNL1        0.0627
      9 C         143.1966  143.0726  164.2272 C.3     1  UNL1        0.0717
     10 C         144.2863  142.4415  165.0422 C.2     1  UNL1       -0.0198
     11 C         145.4775  141.8358  164.3609 C.2     1  UNL1       -0.0042
     12 C         145.5790  141.8611  162.8646 C.2     1  UNL1        0.0006
     13 C         144.4893  142.4921  162.0496 C.2     1  UNL1        0.0111
     14 H         143.6499  144.1478  157.2632 H       1  UNL1        0.1246
     15 C         141.4244  144.2695  159.7109 C.ar    1  UNL1        0.2512
     16 N         140.1066  143.5996  159.9648 N.ar    1  UNL1       -0.1066
     17 N         139.2599  144.5348  160.7763 N.ar    1  UNL1       -0.0718
     18 C         140.0544  145.7827  161.0239 C.ar    1  UNL1        0.4138
     19 O         139.5923  146.9838  161.7946 O.3     1  UNL1       -0.4642
     20 O         141.3922  145.6188  160.3655 O.2     1  UNL1       -0.3908
     21 H         138.7351  146.9965  162.1727 H       1  UNL1        0.2970
     22 C         145.5843  142.1804  156.8411 C.ar    1  UNL1        0.1319
     23 N         146.9483  142.7179  156.5243 N.ar    1  UNL1       -0.2282
     24 C         147.4339  142.0433  155.2756 C.ar    1  UNL1        0.1171
     25 C         146.3699  141.0888  154.8208 C.ar    1  UNL1        0.0942
     26 N         145.2268  141.1736  155.7883 N.ar    1  UNL1       -0.3385
     27 H         144.3889  140.6588  155.7407 H       1  UNL1        0.1672
     28 C         148.7520  142.2814  154.6004 C.ar    1  UNL1        0.1006
     29 C         148.8446  143.2455  153.4551 C.ar    1  UNL1        0.0230
     30 C         150.1627  143.4836  152.7798 C.ar    1  UNL1        0.0328
     31 C         151.3881  142.7575  153.2499 C.ar    1  UNL1        0.1592
     32 F         152.7063  142.9956  152.5747 F       1  UNL1       -0.2025
     33 C         151.2955  141.7933  154.3953 C.ar    1  UNL1        0.1284
     34 N         149.9775  141.5553  155.0705 N.ar    1  UNL1       -0.2399
     35 N         140.7034  145.6883  156.1843 N.ar    1  UNL1       -0.2497
     36 C         141.6694  145.6264  157.3302 C.ar    1  UNL1        0.0944
     37 C         141.7311  144.2059  157.8082 C.ar    1  UNL1        0.0439
     38 C         140.8033  143.3899  156.9577 C.ar    1  UNL1        0.1194
     39 N         140.1681  144.3061  155.9540 N.ar    1  UNL1       -0.1679
     40 C         138.9121  147.3840  155.3683 C.3     1  UNL1        0.0284
     41 C         140.3370  146.9167  155.4053 C.3     1  UNL1        0.1276
@<TRIPOS>BOND
     1    40    41    1
     2    41    35    1
     3    35    36   ar
     4    36    37   ar
     5     1    37    1
     6     1    15    1
     7    15    16   ar
     8    16    17   ar
     9    17    18   ar
    10    18    19    1
    11    18    20   ar
    12     1     2    1
    13     2     3    1
    14     3    22    1
    15    22    23   ar
    16    23    24   ar
    17    24    28    1
    18    28    29   ar
    19    29    30   ar
    20    30    31   ar
    21    31    32    1
    22    31    33   ar
    23    33    34   ar
    24    24    25   ar
    25    25    26   ar
    26     3     4    1
    27     4     5    1
    28     5     6    2
    29     6     7    1
    30     7     8    2
    31     8     9    1
    32     9    10    1
    33    10    11    2
    34    11    12    1
    35    12    13    2
    36    37    38   ar
    37    38    39   ar
    38    39    35   ar
    39     6     1    1
    40    13     8    1
    41    20    15   ar
    42    26    22   ar
    43    13     5    1
    44    34    28   ar
    45    19    21    1
    46     2    14    1
    47    26    27    1
@<TRIPOS>MOLECULE
*****
 41 47 0 0 0
SMALL
GASTEIGER

@<TRIPOS>ATOM
      1 C         141.6843  142.1175  161.5718 C.3     1  UNL1        0.1708
      2 N         141.8728  141.3400  160.3030 N.3     1  UNL1       -0.2797
      3 C         142.3737  139.9271  160.3566 C.3     1  UNL1        0.1167
      4 C         142.6861  139.2918  161.6790 C.3     1  UNL1        0.0511
      5 C         142.4976  140.0692  162.9478 C.2     1  UNL1       -0.0037
      6 C         141.9967  141.4821  162.8942 C.2     1  UNL1        0.0800
      7 N         141.9099  141.9967  164.3005 N.2     1  UNL1       -0.2519
      8 C         142.3572  140.9019  165.2232 C.2     1  UNL1        0.0627
      9 C         142.4807  140.8358  166.7166 C.3     1  UNL1        0.0717
     10 C         142.9674  139.5785  167.3740 C.2     1  UNL1       -0.0198
     11 C         143.3306  138.3872  166.5380 C.2     1  UNL1       -0.0042
     12 C         143.2071  138.4533  165.0446 C.2     1  UNL1        0.0006
     13 C         142.7204  139.7106  164.3872 C.2     1  UNL1        0.0111
     14 H         142.5342  141.8654  159.7312 H       1  UNL1        0.1246
     15 C         141.3465  143.2526  162.4926 C.ar    1  UNL1        0.2512
     16 N         142.2464  144.3996  162.8450 N.ar    1  UNL1       -0.1066
     17 N         141.5055  145.2957  163.7927 N.ar    1  UNL1       -0.0718
     18 C         140.1478  144.7024  164.0259 C.ar    1  UNL1        0.4138
     19 O         139.0764  145.2720  164.9079 O.3     1  UNL1       -0.4642
     20 O         140.0495  143.4396  163.2224 O.2     1  UNL1       -0.3908
     21 H         139.2286  146.0704  165.3740 H       1  UNL1        0.2970
     22 C         142.5623  139.1496  159.0877 C.ar    1  UNL1        0.1319
     23 N         142.2622  137.6928  158.8936 N.ar    1  UNL1       -0.2282
     24 C         142.5985  137.3352  157.4762 C.ar    1  UNL1        0.1171
     25 C         143.1063  138.5710  156.7943 C.ar    1  UNL1        0.0942
     26 N         143.0839  139.6923  157.7903 N.ar    1  UNL1       -0.3385
     27 H         143.3626  140.6214  157.6220 H       1  UNL1        0.1672
     28 C         142.4525  135.9797  156.8505 C.ar    1  UNL1        0.1006
     29 C         143.2822  134.8321  157.3450 C.ar    1  UNL1        0.0230
     30 C         143.1363  133.4767  156.7194 C.ar    1  UNL1        0.0328
     31 C         142.1606  133.2688  155.5992 C.ar    1  UNL1        0.1592
     32 F         142.0146  131.9133  154.9735 F       1  UNL1       -0.2025
     33 C         141.3309  134.4164  155.1047 C.ar    1  UNL1        0.1284
     34 N         141.4768  135.7719  155.7303 N.ar    1  UNL1       -0.2399
     35 N         141.3106  144.8552  158.8459 N.ar    1  UNL1       -0.2497
     36 C         142.1628  143.9524  159.6879 C.ar    1  UNL1        0.0944
     37 C         141.2546  143.1471  160.5692 C.ar    1  UNL1        0.0439
     38 C         139.8412  143.5521  160.2719 C.ar    1  UNL1        0.1194
     39 N         139.8759  144.6078  159.2068 N.ar    1  UNL1       -0.1679
     40 C         141.2120  145.8441  156.4454 C.3     1  UNL1        0.0284
     41 C         141.8063  145.8336  157.8226 C.3     1  UNL1        0.1276
@<TRIPOS>BOND
     1    40    41    1
     2    41    35    1
     3    35    36   ar
     4    36    37   ar
     5     1    37    1
     6     1    15    1
     7    15    16   ar
     8    16    17   ar
     9    17    18   ar
    10    18    19    1
    11    18    20   ar
    12     1     2    1
    13     2     3    1
    14     3    22    1
    15    22    23   ar
    16    23    24   ar
    17    24    28    1
    18    28    29   ar
    19    29    30   ar
    20    30    31   ar
    21    31    32    1
    22    31    33   ar
    23    33    34   ar
    24    24    25   ar
    25    25    26   ar
    26     3     4    1
    27     4     5    1
    28     5     6    2
    29     6     7    1
    30     7     8    2
    31     8     9    1
    32     9    10    1
    33    10    11    2
    34    11    12    1
    35    12    13    2
    36    37    38   ar
    37    38    39   ar
    38    39    35   ar
    39     6     1    1
    40    13     8    1
    41    20    15   ar
    42    26    22   ar
    43    13     5    1
    44    34    28   ar
    45    19    21    1
    46     2    14    1
    47    26    27    1
@<TRIPOS>MOLECULE
*****
 41 47 0 0 0
SMALL
GASTEIGER

@<TRIPOS>ATOM
      1 C         140.8045  141.1780  159.7365 C.3     1  UNL1        0.1708
      2 N         141.1435  140.0840  158.7680 N.3     1  UNL1       -0.2797
      3 C         142.4394  139.3403  158.9002 C.3     1  UNL1        0.1167
      4 C         143.3963  139.6906  160.0010 C.3     1  UNL1        0.0511
      5 C         143.0573  140.7846  160.9695 C.2     1  UNL1       -0.0037
      6 C         141.7614  141.5283  160.8373 C.2     1  UNL1        0.0800
      7 N         141.7002  142.5512  161.9327 N.2     1  UNL1       -0.2519
      8 C         142.9583  142.4397  162.7419 C.2     1  UNL1        0.0627
      9 C         143.4485  143.1913  163.9439 C.3     1  UNL1        0.0717
     10 C         144.7774  142.8510  164.5506 C.2     1  UNL1       -0.0198
     11 C         145.6161  141.7591  163.9553 C.2     1  UNL1       -0.0042
     12 C         145.1259  141.0075  162.7533 C.2     1  UNL1        0.0006
     13 C         143.7970  141.3478  162.1466 C.2     1  UNL1        0.0111
     14 H         141.1376  140.5021  157.8376 H       1  UNL1        0.1246
     15 C         140.0411  142.2839  160.4033 C.ar    1  UNL1        0.2512
     16 N         140.2232  143.7526  160.1595 N.ar    1  UNL1       -0.1066
     17 N         139.2562  144.4914  161.0364 N.ar    1  UNL1       -0.0718
     18 C         138.4764  143.4792  161.8222 C.ar    1  UNL1        0.4138
     19 O         137.4005  143.7789  162.8235 O.3     1  UNL1       -0.4642
     20 O         138.9615  142.1148  161.4308 O.2     1  UNL1       -0.3908
     21 H         137.1629  144.6670  163.0043 H       1  UNL1        0.2970
     22 C         142.7785  138.2462  157.9316 C.ar    1  UNL1        0.1319
     23 N         142.3862  136.8039  158.0581 N.ar    1  UNL1       -0.2282
     24 C         142.9346  136.0686  156.8712 C.ar    1  UNL1        0.1171
     25 C         143.6658  137.0565  156.0113 C.ar    1  UNL1        0.0942
     26 N         143.5693  138.4023  156.6666 N.ar    1  UNL1       -0.3385
     27 H         143.9570  139.2408  156.3263 H       1  UNL1        0.1672
     28 C         142.7791  134.6028  156.5931 C.ar    1  UNL1        0.1006
     29 C         143.6692  133.6104  157.2808 C.ar    1  UNL1        0.0230
     30 C         143.5137  132.1447  157.0028 C.ar    1  UNL1        0.0328
     31 C         142.4681  131.6713  156.0371 C.ar    1  UNL1        0.1592
     32 F         142.3126  130.2055  155.7590 F       1  UNL1       -0.2025
     33 C         141.5780  132.6637  155.3494 C.ar    1  UNL1        0.1284
     34 N         141.7335  134.1295  155.6274 N.ar    1  UNL1       -0.2399
     35 N         137.9694  141.8693  157.1773 N.ar    1  UNL1       -0.2497
     36 C         139.2969  142.2115  157.7861 C.ar    1  UNL1        0.0944
     37 C         139.5825  141.2118  158.8673 C.ar    1  UNL1        0.0439
     38 C         138.4315  140.2517  158.9267 C.ar    1  UNL1        0.1194
     39 N         137.4345  140.6581  157.8822 N.ar    1  UNL1       -0.1679
     40 C         136.0162  142.0837  155.4776 C.3     1  UNL1        0.0284
     41 C         137.2951  142.6085  156.0597 C.3     1  UNL1        0.1276
@<TRIPOS>BOND
     1    40    41    1
     2    41    35    1
     3    35    36   ar
     4    36    37   ar
     5     1    37    1
     6     1    15    1
     7    15    16   ar
     8    16    17   ar
     9    17    18   ar
    10    18    19    1
    11    18    20   ar
    12     1     2    1
    13     2     3    1
    14     3    22    1
    15    22    23   ar
    16    23    24   ar
    17    24    28    1
    18    28    29   ar
    19    29    30   ar
    20    30    31   ar
    21    31    32    1
    22    31    33   ar
    23    33    34   ar
    24    24    25   ar
    25    25    26   ar
    26     3     4    1
    27     4     5    1
    28     5     6    2
    29     6     7    1
    30     7     8    2
    31     8     9    1
    32     9    10    1
    33    10    11    2
    34    11    12    1
    35    12    13    2
    36    37    38   ar
    37    38    39   ar
    38    39    35   ar
    39     6     1    1
    40    13     8    1
    41    20    15   ar
    42    26    22   ar
    43    13     5    1
    44    34    28   ar
    45    19    21    1
    46     2    14    1
    47    26    27    1
@<TRIPOS>MOLECULE
*****
 41 47 0 0 0
SMALL
GASTEIGER

@<TRIPOS>ATOM
      1 C         142.0386  140.8872  164.4019 C.3     1  UNL1        0.1708
      2 N         141.7166  141.9016  163.3449 N.3     1  UNL1       -0.2797
      3 C         141.0567  143.1946  163.7225 C.3     1  UNL1        0.1167
      4 C         140.7188  143.4733  165.1571 C.3     1  UNL1        0.0511
      5 C         141.0408  142.4589  166.2142 C.2     1  UNL1       -0.0037
      6 C         141.7006  141.1659  165.8366 C.2     1  UNL1        0.0800
      7 N         141.8958  140.3624  167.0881 N.2     1  UNL1       -0.2519
      8 C         141.3565  141.1588  168.2391 C.2     1  UNL1        0.0627
      9 C         141.2784  140.8715  169.7092 C.3     1  UNL1        0.0717
     10 C         140.6718  141.8800  170.6392 C.2     1  UNL1       -0.0198
     11 C         140.1434  143.1758  170.0991 C.2     1  UNL1       -0.0042
     12 C         140.2215  143.4631  168.6290 C.2     1  UNL1        0.0006
     13 C         140.8281  142.4546  167.6990 C.2     1  UNL1        0.0111
     14 H         141.1014  141.4421  162.6735 H       1  UNL1        0.1246
     15 C         142.5381  139.6236  165.0375 C.ar    1  UNL1        0.2512
     16 N         141.8249  138.3042  165.0558 N.ar    1  UNL1       -0.1066
     17 N         142.6847  137.3228  165.7959 N.ar    1  UNL1       -0.0718
     18 C         143.9293  138.0358  166.2349 C.ar    1  UNL1        0.4138
     19 O         145.0650  137.4326  167.0072 O.3     1  UNL1       -0.4642
     20 O         143.8387  139.4578  165.7662 O.2     1  UNL1       -0.3908
     21 H         145.0339  136.5304  167.2583 H       1  UNL1        0.2970
     22 C         140.7347  144.2091  162.6654 C.ar    1  UNL1        0.1319
     23 N         141.0665  144.0981  161.2068 N.ar    1  UNL1       -0.2282
     24 C         140.5613  145.3330  160.5213 C.ar    1  UNL1        0.1171
     25 C         139.9173  146.2071  161.5562 C.ar    1  UNL1        0.0942
     26 N         140.0245  145.5125  162.8814 N.ar    1  UNL1       -0.3385
     27 H         139.6878  145.8524  163.7418 H       1  UNL1        0.1672
     28 C         140.6794  145.6398  159.0577 C.ar    1  UNL1        0.1006
     29 C         141.9245  145.2636  158.3106 C.ar    1  UNL1        0.0230
     30 C         142.0426  145.5704  156.8471 C.ar    1  UNL1        0.0328
     31 C         140.9156  146.2534  156.1307 C.ar    1  UNL1        0.1592
     32 F         141.0337  146.5603  154.6671 F       1  UNL1       -0.2025
     33 C         139.6705  146.6296  156.8778 C.ar    1  UNL1        0.1284
     34 N         139.5524  146.3228  158.3413 N.ar    1  UNL1       -0.2399
     35 N         142.6334  138.8954  161.1241 N.ar    1  UNL1       -0.2497
     36 C         141.7120  139.4727  162.1575 C.ar    1  UNL1        0.0944
     37 C         142.5500  140.1697  163.1880 C.ar    1  UNL1        0.0439
     38 C         143.9892  140.0232  162.7915 C.ar    1  UNL1        0.1194
     39 N         144.0407  139.2356  161.5159 N.ar    1  UNL1       -0.1679
     40 C         141.4683  138.7921  158.8042 C.3     1  UNL1        0.0284
     41 C         142.2199  138.1150  159.9116 C.3     1  UNL1        0.1276
@<TRIPOS>BOND
     1    40    41    1
     2    41    35    1
     3    35    36   ar
     4    36    37   ar
     5     1    37    1
     6     1    15    1
     7    15    16   ar
     8    16    17   ar
     9    17    18   ar
    10    18    19    1
    11    18    20   ar
    12     1     2    1
    13     2     3    1
    14     3    22    1
    15    22    23   ar
    16    23    24   ar
    17    24    28    1
    18    28    29   ar
    19    29    30   ar
    20    30    31   ar
    21    31    32    1
    22    31    33   ar
    23    33    34   ar
    24    24    25   ar
    25    25    26   ar
    26     3     4    1
    27     4     5    1
    28     5     6    2
    29     6     7    1
    30     7     8    2
    31     8     9    1
    32     9    10    1
    33    10    11    2
    34    11    12    1
    35    12    13    2
    36    37    38   ar
    37    38    39   ar
    38    39    35   ar
    39     6     1    1
    40    13     8    1
    41    20    15   ar
    42    26    22   ar
    43    13     5    1
    44    34    28   ar
    45    19    21    1
    46     2    14    1
    47    26    27    1
@<TRIPOS>MOLECULE
*****
 41 47 0 0 0
SMALL
GASTEIGER

@<TRIPOS>ATOM
      1 C         141.8206  141.7868  160.3049 C.3     1  UNL1        0.1708
      2 N         141.4473  142.5052  159.0421 N.3     1  UNL1       -0.2797
      3 C         140.5363  143.6956  159.0978 C.3     1  UNL1        0.1167
      4 C         139.9988  144.1676  160.4162 C.3     1  UNL1        0.0511
      5 C         140.3721  143.4493  161.6789 C.2     1  UNL1       -0.0037
      6 C         141.2831  142.2589  161.6233 C.2     1  UNL1        0.0800
      7 N         141.4744  141.7558  163.0234 N.2     1  UNL1       -0.2519
      8 C         140.6817  142.6353  163.9444 C.2     1  UNL1        0.0627
      9 C         140.4922  142.6183  165.4322 C.3     1  UNL1        0.0717
     10 C         139.6214  143.6480  166.0891 C.2     1  UNL1       -0.0198
     11 C         138.9402  144.6946  165.2582 C.2     1  UNL1       -0.0042
     12 C         139.1297  144.7116  163.7703 C.2     1  UNL1        0.0006
     13 C         140.0004  143.6820  163.1134 C.2     1  UNL1        0.0111
     14 H         140.9988  141.8193  158.4348 H       1  UNL1        0.1246
     15 C         142.4575  140.7835  161.2202 C.ar    1  UNL1        0.2512
     16 N         141.8865  139.4496  161.6003 N.ar    1  UNL1       -0.1066
     17 N         142.8534  138.7797  162.5312 N.ar    1  UNL1       -0.0718
     18 C         144.0219  139.6997  162.7264 C.ar    1  UNL1        0.4138
     19 O         145.2240  139.4289  163.5818 O.3     1  UNL1       -0.4642
     20 O         143.7772  140.9382  161.9162 O.2     1  UNL1       -0.3908
     21 H         145.2906  138.6226  164.0545 H       1  UNL1        0.2970
     22 C         140.1629  144.4140  157.8350 C.ar    1  UNL1        0.1319
     23 N         140.1242  145.9014  157.6454 N.ar    1  UNL1       -0.2282
     24 C         139.7001  146.1778  156.2334 C.ar    1  UNL1        0.1171
     25 C         139.4767  144.8611  155.5503 C.ar    1  UNL1        0.0942
     26 N         139.7628  143.7710  156.5402 N.ar    1  UNL1       -0.3385
     27 H         139.6991  142.8035  156.3699 H       1  UNL1        0.1672
     28 C         139.5293  147.5329  155.6133 C.ar    1  UNL1        0.1006
     29 C         140.1315  147.8247  154.2708 C.ar    1  UNL1        0.0230
     30 C         139.9608  149.1798  153.6507 C.ar    1  UNL1        0.0328
     31 C         139.1878  150.2431  154.3731 C.ar    1  UNL1        0.1592
     32 F         139.0170  151.5983  153.7530 F       1  UNL1       -0.2025
     33 C         138.5856  149.9513  155.7156 C.ar    1  UNL1        0.1284
     34 N         138.7563  148.5962  156.3357 N.ar    1  UNL1       -0.2399
     35 N         143.1360  139.2861  157.6438 N.ar    1  UNL1       -0.2497
     36 C         142.0366  139.8083  158.5205 C.ar    1  UNL1        0.0944
     37 C         142.5794  140.9663  159.3044 C.ar    1  UNL1        0.0439
     38 C         144.0143  141.1597  158.9121 C.ar    1  UNL1        0.1194
     39 N         144.3582  140.1212  157.8858 N.ar    1  UNL1       -0.1679
     40 C         142.6291  136.7774  157.1970 C.3     1  UNL1        0.0284
     41 C         143.0315  138.1313  156.6921 C.3     1  UNL1        0.1276
@<TRIPOS>BOND
     1    40    41    1
     2    41    35    1
     3    35    36   ar
     4    36    37   ar
     5     1    37    1
     6     1    15    1
     7    15    16   ar
     8    16    17   ar
     9    17    18   ar
    10    18    19    1
    11    18    20   ar
    12     1     2    1
    13     2     3    1
    14     3    22    1
    15    22    23   ar
    16    23    24   ar
    17    24    28    1
    18    28    29   ar
    19    29    30   ar
    20    30    31   ar
    21    31    32    1
    22    31    33   ar
    23    33    34   ar
    24    24    25   ar
    25    25    26   ar
    26     3     4    1
    27     4     5    1
    28     5     6    2
    29     6     7    1
    30     7     8    2
    31     8     9    1
    32     9    10    1
    33    10    11    2
    34    11    12    1
    35    12    13    2
    36    37    38   ar
    37    38    39   ar
    38    39    35   ar
    39     6     1    1
    40    13     8    1
    41    20    15   ar
    42    26    22   ar
    43    13     5    1
    44    34    28   ar
    45    19    21    1
    46     2    14    1
    47    26    27    1
@<TRIPOS>MOLECULE
*****
 41 47 0 0 0
SMALL
GASTEIGER

@<TRIPOS>ATOM
      1 C         140.7921  142.2065  160.2155 C.3     1  UNL1        0.1708
      2 N         141.1679  141.2304  159.1404 N.3     1  UNL1       -0.2797
      3 C         141.9776  140.0145  159.4811 C.3     1  UNL1        0.1167
      4 C         142.4114  139.7747  160.8968 C.3     1  UNL1        0.0511
      5 C         142.0356  140.7509  161.9719 C.2     1  UNL1       -0.0037
      6 C         141.2260  141.9668  161.6312 C.2     1  UNL1        0.0800
      7 N         141.0077  142.7469  162.8937 N.2     1  UNL1       -0.2519
      8 C         141.6823  142.0131  164.0146 C.2     1  UNL1        0.0627
      9 C         141.8003  142.3089  165.4804 C.3     1  UNL1        0.0717
     10 C         142.5535  141.3710  166.3764 C.2     1  UNL1       -0.0198
     11 C         143.1889  140.1374  165.8067 C.2     1  UNL1       -0.0042
     12 C         143.0709  139.8416  164.3409 C.2     1  UNL1        0.0006
     13 C         142.3177  140.7795  163.4449 C.2     1  UNL1        0.0111
     14 H         141.6984  141.7513  158.4421 H       1  UNL1        0.1246
     15 C         140.1934  143.4113  160.8790 C.ar    1  UNL1        0.2512
     16 N         138.7796  143.5399  161.3630 N.ar    1  UNL1       -0.1066
     17 N         138.6160  144.9071  161.9581 N.ar    1  UNL1       -0.0718
     18 C         139.9287  145.6234  161.8419 C.ar    1  UNL1        0.4138
     19 O         140.2161  147.0191  162.3104 O.3     1  UNL1       -0.4642
     20 O         140.9037  144.6989  161.1750 O.2     1  UNL1       -0.3908
     21 H         139.5410  147.5246  162.7186 H       1  UNL1        0.2970
     22 C         142.3534  139.0382  158.4059 C.ar    1  UNL1        0.1319
     23 N         142.0852  137.5625  158.4221 N.ar    1  UNL1       -0.2282
     24 C         142.6295  136.9786  157.1521 C.ar    1  UNL1        0.1171
     25 C         143.2339  138.0934  156.3511 C.ar    1  UNL1        0.0942
     26 N         143.0633  139.3664  157.1260 N.ar    1  UNL1       -0.3385
     27 H         143.3644  140.2603  156.8440 H       1  UNL1        0.1672
     28 C         142.5782  135.5334  156.7533 C.ar    1  UNL1        0.1006
     29 C         141.7201  135.1036  155.6004 C.ar    1  UNL1        0.0230
     30 C         141.6688  133.6586  155.2015 C.ar    1  UNL1        0.0328
     31 C         142.4756  132.6434  155.9555 C.ar    1  UNL1        0.1592
     32 F         142.4243  131.1982  155.5566 F       1  UNL1       -0.2025
     33 C         143.3336  133.0732  157.1083 C.ar    1  UNL1        0.1284
     34 N         143.3849  134.5182  157.5072 N.ar    1  UNL1       -0.2399
     35 N         139.7028  144.3978  157.2027 N.ar    1  UNL1       -0.2497
     36 C         140.6471  144.0935  158.3278 C.ar    1  UNL1        0.0944
     37 C         140.1504  142.8647  159.0302 C.ar    1  UNL1        0.0439
     38 C         138.8992  142.4096  158.3392 C.ar    1  UNL1        0.1194
     39 N         138.6226  143.3572  157.2097 N.ar    1  UNL1       -0.1679
     40 C         138.6232  145.9772  155.4448 C.3     1  UNL1        0.0284
     41 C         139.8186  145.5420  156.2396 C.3     1  UNL1        0.1276
@<TRIPOS>BOND
     1    40    41    1
     2    41    35    1
     3    35    36   ar
     4    36    37   ar
     5     1    37    1
     6     1    15    1
     7    15    16   ar
     8    16    17   ar
     9    17    18   ar
    10    18    19    1
    11    18    20   ar
    12     1     2    1
    13     2     3    1
    14     3    22    1
    15    22    23   ar
    16    23    24   ar
    17    24    28    1
    18    28    29   ar
    19    29    30   ar
    20    30    31   ar
    21    31    32    1
    22    31    33   ar
    23    33    34   ar
    24    24    25   ar
    25    25    26   ar
    26     3     4    1
    27     4     5    1
    28     5     6    2
    29     6     7    1
    30     7     8    2
    31     8     9    1
    32     9    10    1
    33    10    11    2
    34    11    12    1
    35    12    13    2
    36    37    38   ar
    37    38    39   ar
    38    39    35   ar
    39     6     1    1
    40    13     8    1
    41    20    15   ar
    42    26    22   ar
    43    13     5    1
    44    34    28   ar
    45    19    21    1
    46     2    14    1
    47    26    27    1
@<TRIPOS>MOLECULE
*****
 41 47 0 0 0
SMALL
GASTEIGER

@<TRIPOS>ATOM
      1 C         141.5887  141.8253  158.8017 C.3     1  UNL1        0.1708
      2 N         141.4963  140.5449  158.0258 N.3     1  UNL1       -0.2797
      3 C         142.2223  139.3232  158.5055 C.3     1  UNL1        0.1167
      4 C         143.0408  139.3818  159.7612 C.3     1  UNL1        0.0511
      5 C         143.1332  140.6621  160.5372 C.2     1  UNL1       -0.0037
      6 C         142.4072  141.8839  160.0574 C.2     1  UNL1        0.0800
      7 N         142.6830  142.9967  161.0247 N.2     1  UNL1       -0.2519
      8 C         143.5795  142.4626  162.1023 C.2     1  UNL1        0.0627
      9 C         144.1783  143.1038  163.3189 C.3     1  UNL1        0.0717
     10 C         145.0555  142.3020  164.2343 C.2     1  UNL1       -0.0198
     11 C         145.3337  140.8592  163.9329 C.2     1  UNL1       -0.0042
     12 C         144.7348  140.2181  162.7163 C.2     1  UNL1        0.0006
     13 C         143.8577  141.0198  161.8010 C.2     1  UNL1        0.0111
     14 H         141.8427  140.7437  157.0872 H       1  UNL1        0.1246
     15 C         141.3706  143.2582  159.1882 C.ar    1  UNL1        0.2512
     16 N         142.2147  144.4237  158.7653 N.ar    1  UNL1       -0.1066
     17 N         141.6358  145.6629  159.3813 N.ar    1  UNL1       -0.0718
     18 C         140.4340  145.2632  160.1848 C.ar    1  UNL1        0.4138
     19 O         139.5511  146.1874  160.9699 O.3     1  UNL1       -0.4642
     20 O         140.2701  143.7769  160.0655 O.2     1  UNL1       -0.3908
     21 H         139.7320  147.1066  160.9863 H       1  UNL1        0.2970
     22 C         142.1299  138.0427  157.7296 C.ar    1  UNL1        0.1319
     23 N         143.0613  136.8726  157.8453 N.ar    1  UNL1       -0.2282
     24 C         142.5969  135.8144  156.8890 C.ar    1  UNL1        0.1171
     25 C         141.3786  136.3304  156.1824 C.ar    1  UNL1        0.0942
     26 N         141.0900  137.7077  156.7019 N.ar    1  UNL1       -0.3385
     27 H         140.3482  138.2895  156.4182 H       1  UNL1        0.1672
     28 C         143.2384  134.4751  156.6766 C.ar    1  UNL1        0.1006
     29 C         144.0667  133.8592  157.7650 C.ar    1  UNL1        0.0230
     30 C         144.7081  132.5200  157.5527 C.ar    1  UNL1        0.0328
     31 C         144.5212  131.7967  156.2520 C.ar    1  UNL1        0.1592
     32 F         145.1626  130.4574  156.0397 F       1  UNL1       -0.2025
     33 C         143.6929  132.4126  155.1636 C.ar    1  UNL1        0.1284
     34 N         143.0515  133.7518  155.3759 N.ar    1  UNL1       -0.2399
     35 N         138.7259  142.9031  156.4126 N.ar    1  UNL1       -0.2497
     36 C         139.2100  142.4627  157.7624 C.ar    1  UNL1        0.0944
     37 C         140.6946  142.2643  157.6803 C.ar    1  UNL1        0.0439
     38 C         141.1280  142.5821  156.2798 C.ar    1  UNL1        0.1194
     39 N         139.9112  142.9769  155.4963 N.ar    1  UNL1       -0.1679
     40 C         136.6236  142.4342  154.9599 C.3     1  UNL1        0.0284
     41 C         137.3058  143.2150  156.0438 C.3     1  UNL1        0.1276
@<TRIPOS>BOND
     1    40    41    1
     2    41    35    1
     3    35    36   ar
     4    36    37   ar
     5     1    37    1
     6     1    15    1
     7    15    16   ar
     8    16    17   ar
     9    17    18   ar
    10    18    19    1
    11    18    20   ar
    12     1     2    1
    13     2     3    1
    14     3    22    1
    15    22    23   ar
    16    23    24   ar
    17    24    28    1
    18    28    29   ar
    19    29    30   ar
    20    30    31   ar
    21    31    32    1
    22    31    33   ar
    23    33    34   ar
    24    24    25   ar
    25    25    26   ar
    26     3     4    1
    27     4     5    1
    28     5     6    2
    29     6     7    1
    30     7     8    2
    31     8     9    1
    32     9    10    1
    33    10    11    2
    34    11    12    1
    35    12    13    2
    36    37    38   ar
    37    38    39   ar
    38    39    35   ar
    39     6     1    1
    40    13     8    1
    41    20    15   ar
    42    26    22   ar
    43    13     5    1
    44    34    28   ar
    45    19    21    1
    46     2    14    1
    47    26    27    1
