@<TRIPOS>MOLECULE
*****
 33 35 0 0 0
SMALL
GASTEIGER

@<TRIPOS>ATOM
      1 C         139.0894  139.9855  163.1890 C.ar    1  UNL1        0.2699
      2 C         139.0253  138.5395  162.7955 C.ar    1  UNL1        0.0787
      3 C         138.9991  137.4752  163.8521 C.ar    1  UNL1        0.0136
      4 C         139.0370  137.8568  165.3022 C.ar    1  UNL1        0.0787
      5 C         139.1010  139.3029  165.6958 C.ar    1  UNL1        0.2699
      6 N         139.1273  140.3672  164.6391 N.ar    1  UNL1       -0.1494
      7 C         139.1913  141.8133  165.0327 C.3     1  UNL1        0.4092
      8 C         139.1418  142.1143  161.0758 C.1     1  UNL1       -0.0482
      9 C         139.1156  141.0499  162.1324 C.1     1  UNL1        0.0064
     10 C         139.1680  143.1787  160.0192 C.3     1  UNL1        0.2183
     11 O         139.5209  144.5900  160.3849 O.3     1  UNL1       -0.3397
     12 C         139.6846  144.9728  161.8260 C.3     1  UNL1        0.1482
     13 C         140.9721  145.5796  162.2993 C.3     1  UNL1        0.0584
     14 C         145.5946  142.0455  163.7634 C.3     1  UNL1        0.0310
     15 C         144.4389  142.9290  163.3974 C.ar    1  UNL1       -0.0219
     16 C         143.6351  142.6402  162.1644 C.ar    1  UNL1       -0.0046
     17 C         142.4795  143.5237  161.7983 C.ar    1  UNL1       -0.0045
     18 C         142.1277  144.6961  162.6653 C.ar    1  UNL1       -0.0197
     19 C         142.9315  144.9849  163.8983 C.ar    1  UNL1       -0.0045
     20 C         144.0872  144.1014  164.2643 C.ar    1  UNL1       -0.0046
     21 C         139.1389  139.6845  167.1459 C.1     1  UNL1        0.0064
     22 C         139.1768  140.0661  168.5960 C.1     1  UNL1       -0.0482
     23 C         139.2147  140.4477  170.0462 C.3     1  UNL1        0.2183
     24 O         140.4303  140.1430  170.8704 O.3     1  UNL1       -0.3397
     25 C         141.5682  141.1191  170.9180 C.3     1  UNL1        0.1482
     26 C         142.8327  140.8345  170.1631 C.3     1  UNL1        0.0584
     27 C         142.7825  140.5753  168.6865 C.ar    1  UNL1       -0.0197
     28 C         142.8122  139.1670  168.1708 C.ar    1  UNL1       -0.0045
     29 C         142.7620  138.9078  166.6943 C.ar    1  UNL1       -0.0046
     30 C         142.6821  140.0568  165.7334 C.ar    1  UNL1       -0.0219
     31 C         142.6319  139.7976  164.2568 C.3     1  UNL1        0.0310
     32 C         142.6524  141.4651  166.2491 C.ar    1  UNL1       -0.0046
     33 C         142.7026  141.7243  167.7256 C.ar    1  UNL1       -0.0045
@<TRIPOS>UNITY_ATOM_ATTR
6 1
charge 1
@<TRIPOS>BOND
     1    14    15    1
     2    15    16   ar
     3    16    17   ar
     4    17    18   ar
     5    18    13    1
     6    13    12    1
     7    12    11    1
     8    11    10    1
     9    10     8    1
    10     8     9    3
    11     9     1    1
    12     1     2   ar
    13     2     3   ar
    14     3     4   ar
    15     4     5   ar
    16     5    21    1
    17    21    22    3
    18    22    23    1
    19    23    24    1
    20    24    25    1
    21    25    26    1
    22    26    27    1
    23    27    28   ar
    24    28    29   ar
    25    29    30   ar
    26    30    31    1
    27    30    32   ar
    28    32    33   ar
    29     5     6   ar
    30     6     7    1
    31    18    19   ar
    32    19    20   ar
    33    20    15   ar
    34     6     1   ar
    35    33    27   ar
@<TRIPOS>MOLECULE
*****
 33 35 0 0 0
SMALL
GASTEIGER

@<TRIPOS>ATOM
      1 C         139.0916  139.2807  165.7033 C.ar    1  UNL1        0.2699
      2 C         139.0786  137.8383  165.2920 C.ar    1  UNL1        0.0787
      3 C         139.0865  137.4731  163.8371 C.ar    1  UNL1        0.0136
      4 C         139.1075  138.5504  162.7936 C.ar    1  UNL1        0.0787
      5 C         139.1205  139.9929  163.2049 C.ar    1  UNL1        0.2699
      6 N         139.1126  140.3581  164.6597 N.ar    1  UNL1       -0.1494
      7 C         139.1256  141.8005  165.0710 C.3     1  UNL1        0.4092
      8 C         139.0758  140.0110  168.6130 C.1     1  UNL1       -0.0482
      9 C         139.0837  139.6459  167.1582 C.1     1  UNL1        0.0064
     10 C         139.0678  140.3762  170.0679 C.3     1  UNL1        0.2183
     11 O         140.0360  141.3959  170.5905 O.3     1  UNL1       -0.3397
     12 C         141.3949  140.9683  171.0601 C.3     1  UNL1        0.1482
     13 C         142.6037  141.2565  170.2201 C.3     1  UNL1        0.0584
     14 C         142.6921  139.6514  164.4394 C.3     1  UNL1        0.0310
     15 C         142.6700  140.0527  165.8846 C.ar    1  UNL1       -0.0219
     16 C         142.5816  141.5025  166.2592 C.ar    1  UNL1       -0.0046
     17 C         142.5595  141.9037  167.7043 C.ar    1  UNL1       -0.0045
     18 C         142.6258  140.8552  168.7749 C.ar    1  UNL1       -0.0197
     19 C         142.7142  139.4055  168.4004 C.ar    1  UNL1       -0.0045
     20 C         142.7364  139.0042  166.9552 C.ar    1  UNL1       -0.0046
     21 C         139.1415  141.0701  162.1613 C.1     1  UNL1        0.0064
     22 C         139.1624  142.1474  161.1178 C.1     1  UNL1       -0.0482
     23 C         139.1834  143.2247  160.0741 C.3     1  UNL1        0.2183
     24 O         139.4442  144.6477  160.4703 O.3     1  UNL1       -0.3397
     25 C         139.6683  144.9958  161.9120 C.3     1  UNL1        0.1482
     26 C         140.9709  145.6015  162.3436 C.3     1  UNL1        0.0584
     27 C         142.1143  144.7160  162.7420 C.ar    1  UNL1       -0.0197
     28 C         142.4237  143.4853  161.9423 C.ar    1  UNL1       -0.0045
     29 C         143.5670  142.5998  162.3406 C.ar    1  UNL1       -0.0046
     30 C         144.4009  142.9451  163.5386 C.ar    1  UNL1       -0.0219
     31 C         145.5443  142.0595  163.9370 C.3     1  UNL1        0.0310
     32 C         144.0915  144.1758  164.3384 C.ar    1  UNL1       -0.0046
     33 C         142.9482  145.0613  163.9400 C.ar    1  UNL1       -0.0045
@<TRIPOS>UNITY_ATOM_ATTR
6 1
charge 1
@<TRIPOS>BOND
     1    14    15    1
     2    15    16   ar
     3    16    17   ar
     4    17    18   ar
     5    18    13    1
     6    13    12    1
     7    12    11    1
     8    11    10    1
     9    10     8    1
    10     8     9    3
    11     9     1    1
    12     1     2   ar
    13     2     3   ar
    14     3     4   ar
    15     4     5   ar
    16     5    21    1
    17    21    22    3
    18    22    23    1
    19    23    24    1
    20    24    25    1
    21    25    26    1
    22    26    27    1
    23    27    28   ar
    24    28    29   ar
    25    29    30   ar
    26    30    31    1
    27    30    32   ar
    28    32    33   ar
    29     5     6   ar
    30     6     7    1
    31    18    19   ar
    32    19    20   ar
    33    20    15   ar
    34     6     1   ar
    35    33    27   ar
@<TRIPOS>MOLECULE
*****
 33 35 0 0 0
SMALL
GASTEIGER

@<TRIPOS>ATOM
      1 C         143.0660  139.2242  165.4886 C.ar    1  UNL1        0.2699
      2 C         144.4563  139.2919  164.9298 C.ar    1  UNL1        0.0787
      3 C         144.6650  139.3891  163.4476 C.ar    1  UNL1        0.0136
      4 C         143.4833  139.4186  162.5242 C.ar    1  UNL1        0.0787
      5 C         142.0929  139.3509  163.0830 C.ar    1  UNL1        0.2699
      6 N         141.8842  139.2537  164.5652 N.ar    1  UNL1       -0.1494
      7 C         140.4939  139.1860  165.1240 C.3     1  UNL1        0.4092
      8 C         142.6487  139.0298  168.4531 C.1     1  UNL1       -0.0482
      9 C         142.8573  139.1270  166.9709 C.1     1  UNL1        0.0064
     10 C         142.4400  138.9326  169.9353 C.3     1  UNL1        0.2183
     11 O         141.7888  140.0624  170.6767 O.3     1  UNL1       -0.3397
     12 C         140.7126  140.8716  170.0157 C.3     1  UNL1        0.1482
     13 C         141.0186  142.2457  169.4977 C.3     1  UNL1        0.0584
     14 C         143.3032  142.9367  163.9929 C.3     1  UNL1        0.0310
     15 C         142.7320  142.7639  165.3691 C.ar    1  UNL1       -0.0219
     16 C         141.2477  142.6579  165.5573 C.ar    1  UNL1       -0.0046
     17 C         140.6765  142.4852  166.9335 C.ar    1  UNL1       -0.0045
     18 C         141.5897  142.4184  168.1215 C.ar    1  UNL1       -0.0197
     19 C         143.0741  142.5244  167.9334 C.ar    1  UNL1       -0.0045
     20 C         143.6452  142.6971  166.5572 C.ar    1  UNL1       -0.0046
     21 C         140.9112  139.3804  162.1596 C.1     1  UNL1        0.0064
     22 C         139.7295  139.4099  161.2362 C.1     1  UNL1       -0.0482
     23 C         138.5477  139.4394  160.3128 C.3     1  UNL1        0.2183
     24 O         138.4836  140.4529  159.2089 O.3     1  UNL1       -0.3397
     25 C         138.2137  141.8935  159.5281 C.3     1  UNL1        0.1482
     26 C         139.2735  142.7276  160.1847 C.3     1  UNL1        0.0584
     27 C         139.0372  143.3016  161.5503 C.ar    1  UNL1       -0.0197
     28 C         137.9998  142.6964  162.4490 C.ar    1  UNL1       -0.0045
     29 C         137.7635  143.2703  163.8145 C.ar    1  UNL1       -0.0046
     30 C         138.5646  144.4494  164.2813 C.ar    1  UNL1       -0.0219
     31 C         138.3283  145.0235  165.6469 C.3     1  UNL1        0.0310
     32 C         139.6019  145.0546  163.3826 C.ar    1  UNL1       -0.0046
     33 C         139.8382  144.4807  162.0171 C.ar    1  UNL1       -0.0045
@<TRIPOS>UNITY_ATOM_ATTR
6 1
charge 1
@<TRIPOS>BOND
     1    14    15    1
     2    15    16   ar
     3    16    17   ar
     4    17    18   ar
     5    18    13    1
     6    13    12    1
     7    12    11    1
     8    11    10    1
     9    10     8    1
    10     8     9    3
    11     9     1    1
    12     1     2   ar
    13     2     3   ar
    14     3     4   ar
    15     4     5   ar
    16     5    21    1
    17    21    22    3
    18    22    23    1
    19    23    24    1
    20    24    25    1
    21    25    26    1
    22    26    27    1
    23    27    28   ar
    24    28    29   ar
    25    29    30   ar
    26    30    31    1
    27    30    32   ar
    28    32    33   ar
    29     5     6   ar
    30     6     7    1
    31    18    19   ar
    32    19    20   ar
    33    20    15   ar
    34     6     1   ar
    35    33    27   ar
@<TRIPOS>MOLECULE
*****
 33 35 0 0 0
SMALL
GASTEIGER

@<TRIPOS>ATOM
      1 C         141.0162  138.9876  163.0803 C.ar    1  UNL1        0.2699
      2 C         141.8266  137.7697  162.7486 C.ar    1  UNL1        0.0787
      3 C         142.7611  137.7873  161.5754 C.ar    1  UNL1        0.0136
      4 C         142.8852  139.0227  160.7339 C.ar    1  UNL1        0.0787
      5 C         142.0748  140.2407  161.0655 C.ar    1  UNL1        0.2699
      6 N         141.1403  140.2231  162.2387 N.ar    1  UNL1       -0.1494
      7 C         140.3299  141.4410  162.5704 C.3     1  UNL1        0.4092
      8 C         139.1472  138.9525  165.4267 C.1     1  UNL1       -0.0482
      9 C         140.0817  138.9700  164.2535 C.1     1  UNL1        0.0064
     10 C         138.2128  138.9349  166.6000 C.3     1  UNL1        0.2183
     11 O         138.7279  139.2469  167.9738 O.3     1  UNL1       -0.3397
     12 C         139.7122  140.3616  168.1705 C.3     1  UNL1        0.1482
     13 C         141.1667  140.0519  168.3662 C.3     1  UNL1        0.0584
     14 C         144.8958  140.0661  163.6658 C.3     1  UNL1        0.0310
     15 C         143.9635  140.0625  164.8409 C.ar    1  UNL1       -0.0219
     16 C         143.8138  138.8254  165.6757 C.ar    1  UNL1       -0.0046
     17 C         142.8815  138.8219  166.8508 C.ar    1  UNL1       -0.0045
     18 C         142.0990  140.0554  167.1911 C.ar    1  UNL1       -0.0197
     19 C         142.2487  141.2926  166.3562 C.ar    1  UNL1       -0.0045
     20 C         143.1810  141.2961  165.1811 C.ar    1  UNL1       -0.0046
     21 C         142.1988  141.4761  160.2239 C.1     1  UNL1        0.0064
     22 C         142.3229  142.7115  159.3824 C.1     1  UNL1       -0.0482
     23 C         142.4471  143.9470  158.5408 C.3     1  UNL1        0.2183
     24 O         141.3557  144.9760  158.5536 O.3     1  UNL1       -0.3397
     25 C         140.2425  144.8761  159.5538 C.3     1  UNL1        0.1482
     26 C         140.2014  145.8109  160.7262 C.3     1  UNL1        0.0584
     27 C         140.0769  145.2642  162.1175 C.ar    1  UNL1       -0.0197
     28 C         138.7234  144.9447  162.6795 C.ar    1  UNL1       -0.0045
     29 C         138.5989  144.3979  164.0707 C.ar    1  UNL1       -0.0046
     30 C         139.8280  144.1706  164.8999 C.ar    1  UNL1       -0.0219
     31 C         139.7036  143.6238  166.2912 C.3     1  UNL1        0.0310
     32 C         141.1816  144.4901  164.3379 C.ar    1  UNL1       -0.0046
     33 C         141.3060  145.0369  162.9467 C.ar    1  UNL1       -0.0045
@<TRIPOS>UNITY_ATOM_ATTR
6 1
charge 1
@<TRIPOS>BOND
     1    14    15    1
     2    15    16   ar
     3    16    17   ar
     4    17    18   ar
     5    18    13    1
     6    13    12    1
     7    12    11    1
     8    11    10    1
     9    10     8    1
    10     8     9    3
    11     9     1    1
    12     1     2   ar
    13     2     3   ar
    14     3     4   ar
    15     4     5   ar
    16     5    21    1
    17    21    22    3
    18    22    23    1
    19    23    24    1
    20    24    25    1
    21    25    26    1
    22    26    27    1
    23    27    28   ar
    24    28    29   ar
    25    29    30   ar
    26    30    31    1
    27    30    32   ar
    28    32    33   ar
    29     5     6   ar
    30     6     7    1
    31    18    19   ar
    32    19    20   ar
    33    20    15   ar
    34     6     1   ar
    35    33    27   ar
@<TRIPOS>MOLECULE
*****
 33 35 0 0 0
SMALL
GASTEIGER

@<TRIPOS>ATOM
      1 C         141.1865  140.0523  162.7237 C.ar    1  UNL1        0.2699
      2 C         141.7853  138.8577  162.0424 C.ar    1  UNL1        0.0787
      3 C         141.4247  137.4750  162.4987 C.ar    1  UNL1        0.0136
      4 C         140.4652  137.2870  163.6362 C.ar    1  UNL1        0.0787
      5 C         139.8663  138.4817  164.3176 C.ar    1  UNL1        0.2699
      6 N         140.2270  139.8644  163.8613 N.ar    1  UNL1       -0.1494
      7 C         139.6282  141.0591  164.5426 C.3     1  UNL1        0.4092
      8 C         141.9079  142.8176  161.8111 C.1     1  UNL1       -0.0482
      9 C         141.5472  141.4350  162.2674 C.1     1  UNL1        0.0064
     10 C         142.2686  144.2003  161.3549 C.3     1  UNL1        0.2183
     11 O         143.1996  145.0421  162.1763 O.3     1  UNL1       -0.3397
     12 C         144.2786  144.3913  162.9900 C.3     1  UNL1        0.1482
     13 C         144.0384  144.0725  164.4359 C.3     1  UNL1        0.0584
     14 C         143.1971  138.3857  166.1545 C.3     1  UNL1        0.0310
     15 C         143.4075  139.8074  165.7249 C.ar    1  UNL1       -0.0219
     16 C         144.3582  140.1205  164.6077 C.ar    1  UNL1       -0.0046
     17 C         144.5685  141.5422  164.1781 C.ar    1  UNL1       -0.0045
     18 C         143.8281  142.6508  164.8656 C.ar    1  UNL1       -0.0197
     19 C         142.8774  142.3377  165.9827 C.ar    1  UNL1       -0.0045
     20 C         142.6671  140.9160  166.4124 C.ar    1  UNL1       -0.0046
     21 C         138.9069  138.2937  165.4551 C.1     1  UNL1        0.0064
     22 C         137.9474  138.1058  166.5926 C.1     1  UNL1       -0.0482
     23 C         136.9879  137.9178  167.7302 C.3     1  UNL1        0.2183
     24 O         137.1977  138.6571  169.0184 O.3     1  UNL1       -0.3397
     25 C         138.1993  139.7714  169.0889 C.3     1  UNL1        0.1482
     26 C         139.1054  139.8913  170.2784 C.3     1  UNL1        0.0584
     27 C         140.4169  140.6086  170.1529 C.ar    1  UNL1       -0.0197
     28 C         140.4420  142.0886  169.9106 C.ar    1  UNL1       -0.0045
     29 C         141.7534  142.8059  169.7852 C.ar    1  UNL1       -0.0046
     30 C         143.0396  142.0431  169.9021 C.ar    1  UNL1       -0.0219
     31 C         144.3511  142.7603  169.7766 C.3     1  UNL1        0.0310
     32 C         143.0144  140.5630  170.1444 C.ar    1  UNL1       -0.0046
     33 C         141.7031  139.8457  170.2698 C.ar    1  UNL1       -0.0045
@<TRIPOS>UNITY_ATOM_ATTR
6 1
charge 1
@<TRIPOS>BOND
     1    14    15    1
     2    15    16   ar
     3    16    17   ar
     4    17    18   ar
     5    18    13    1
     6    13    12    1
     7    12    11    1
     8    11    10    1
     9    10     8    1
    10     8     9    3
    11     9     1    1
    12     1     2   ar
    13     2     3   ar
    14     3     4   ar
    15     4     5   ar
    16     5    21    1
    17    21    22    3
    18    22    23    1
    19    23    24    1
    20    24    25    1
    21    25    26    1
    22    26    27    1
    23    27    28   ar
    24    28    29   ar
    25    29    30   ar
    26    30    31    1
    27    30    32   ar
    28    32    33   ar
    29     5     6   ar
    30     6     7    1
    31    18    19   ar
    32    19    20   ar
    33    20    15   ar
    34     6     1   ar
    35    33    27   ar
@<TRIPOS>MOLECULE
*****
 33 35 0 0 0
SMALL
GASTEIGER

@<TRIPOS>ATOM
      1 C         143.8669  142.4491  164.9096 C.ar    1  UNL1        0.2699
      2 C         145.2218  142.0409  164.4123 C.ar    1  UNL1        0.0787
      3 C         145.5065  142.0237  162.9397 C.ar    1  UNL1        0.0136
      4 C         144.4361  142.4148  161.9643 C.ar    1  UNL1        0.0787
      5 C         143.0811  142.8231  162.4616 C.ar    1  UNL1        0.2699
      6 N         142.7964  142.8403  163.9342 N.ar    1  UNL1       -0.1494
      7 C         141.4415  143.2485  164.4315 C.3     1  UNL1        0.4092
      8 C         143.2976  142.4835  167.8549 C.1     1  UNL1       -0.0482
      9 C         143.5822  142.4663  166.3823 C.1     1  UNL1        0.0064
     10 C         143.0129  142.5006  169.3275 C.3     1  UNL1        0.2183
     11 O         142.5457  141.2523  170.0157 O.3     1  UNL1       -0.3397
     12 C         141.8312  140.1886  169.2359 C.3     1  UNL1        0.1482
     13 C         142.6127  139.1001  168.5620 C.3     1  UNL1        0.0584
     14 C         143.1176  139.0300  162.5837 C.3     1  UNL1        0.0310
     15 C         142.9914  139.0475  164.0782 C.ar    1  UNL1       -0.0219
     16 C         144.1407  138.6028  164.9332 C.ar    1  UNL1       -0.0046
     17 C         144.0145  138.6203  166.4278 C.ar    1  UNL1       -0.0045
     18 C         142.7389  139.0826  167.0674 C.ar    1  UNL1       -0.0197
     19 C         141.5895  139.5273  166.2124 C.ar    1  UNL1       -0.0045
     20 C         141.7157  139.5097  164.7178 C.ar    1  UNL1       -0.0046
     21 C         142.0108  143.2142  161.4862 C.1     1  UNL1        0.0064
     22 C         140.9404  143.6053  160.5108 C.1     1  UNL1       -0.0482
     23 C         139.8700  143.9964  159.5354 C.3     1  UNL1        0.2183
     24 O         138.6029  143.1979  159.4524 O.3     1  UNL1       -0.3397
     25 C         138.4247  141.9824  160.3130 C.3     1  UNL1        0.1482
     26 C         138.0106  142.1328  161.7468 C.3     1  UNL1        0.0584
     27 C         138.1559  140.9790  162.6944 C.ar    1  UNL1       -0.0197
     28 C         137.9894  141.1944  164.1695 C.ar    1  UNL1       -0.0045
     29 C         138.1348  140.0408  165.1170 C.ar    1  UNL1       -0.0046
     30 C         138.4466  138.6717  164.5895 C.ar    1  UNL1       -0.0219
     31 C         138.5919  137.5180  165.5371 C.3     1  UNL1        0.0310
     32 C         138.6130  138.4563  163.1144 C.ar    1  UNL1       -0.0046
     33 C         138.4677  139.6099  162.1669 C.ar    1  UNL1       -0.0045
@<TRIPOS>UNITY_ATOM_ATTR
6 1
charge 1
@<TRIPOS>BOND
     1    14    15    1
     2    15    16   ar
     3    16    17   ar
     4    17    18   ar
     5    18    13    1
     6    13    12    1
     7    12    11    1
     8    11    10    1
     9    10     8    1
    10     8     9    3
    11     9     1    1
    12     1     2   ar
    13     2     3   ar
    14     3     4   ar
    15     4     5   ar
    16     5    21    1
    17    21    22    3
    18    22    23    1
    19    23    24    1
    20    24    25    1
    21    25    26    1
    22    26    27    1
    23    27    28   ar
    24    28    29   ar
    25    29    30   ar
    26    30    31    1
    27    30    32   ar
    28    32    33   ar
    29     5     6   ar
    30     6     7    1
    31    18    19   ar
    32    19    20   ar
    33    20    15   ar
    34     6     1   ar
    35    33    27   ar
@<TRIPOS>MOLECULE
*****
 33 35 0 0 0
SMALL
GASTEIGER

@<TRIPOS>ATOM
      1 C         142.1717  142.4883  165.9722 C.ar    1  UNL1        0.2699
      2 C         143.5943  142.7335  166.3796 C.ar    1  UNL1        0.0787
      3 C         144.5172  143.4848  165.4665 C.ar    1  UNL1        0.0136
      4 C         144.0174  143.9909  164.1458 C.ar    1  UNL1        0.0787
      5 C         142.5948  143.7457  163.7383 C.ar    1  UNL1        0.2699
      6 N         141.6719  142.9944  164.6515 N.ar    1  UNL1       -0.1494
      7 C         140.2493  142.7492  164.2440 C.3     1  UNL1        0.4092
      8 C         140.3260  140.9857  167.7985 C.1     1  UNL1       -0.0482
      9 C         141.2488  141.7370  166.8854 C.1     1  UNL1        0.0064
     10 C         139.4031  140.2345  168.7117 C.3     1  UNL1        0.2183
     11 O         138.5564  139.1203  168.1714 O.3     1  UNL1       -0.3397
     12 C         138.0629  139.1721  166.7559 C.3     1  UNL1        0.1482
     13 C         138.7641  138.3864  165.6878 C.3     1  UNL1        0.0584
     14 C         137.9995  139.8261  159.9135 C.3     1  UNL1        0.0310
     15 C         138.1907  139.4662  161.3571 C.ar    1  UNL1       -0.0219
     16 C         137.8169  140.4454  162.4300 C.ar    1  UNL1       -0.0046
     17 C         138.0080  140.0855  163.8736 C.ar    1  UNL1       -0.0045
     18 C         138.5730  138.7463  164.2442 C.ar    1  UNL1       -0.0197
     19 C         138.9468  137.7671  163.1712 C.ar    1  UNL1       -0.0045
     20 C         138.7556  138.1270  161.7277 C.ar    1  UNL1       -0.0046
     21 C         142.0951  144.2518  162.4177 C.1     1  UNL1        0.0064
     22 C         141.5953  144.7579  161.0971 C.1     1  UNL1       -0.0482
     23 C         141.0955  145.2640  159.7764 C.3     1  UNL1        0.2183
     24 O         140.8340  144.3026  158.6551 O.3     1  UNL1       -0.3397
     25 C         141.7393  143.1241  158.4511 C.3     1  UNL1        0.1482
     26 C         141.4166  141.8097  159.0979 C.3     1  UNL1        0.0584
     27 C         142.1955  141.3519  160.2953 C.ar    1  UNL1       -0.0197
     28 C         143.6613  141.6537  160.3968 C.ar    1  UNL1       -0.0045
     29 C         144.4402  141.1958  161.5942 C.ar    1  UNL1       -0.0046
     30 C         143.7532  140.4363  162.6901 C.ar    1  UNL1       -0.0219
     31 C         144.5321  139.9784  163.8875 C.3     1  UNL1        0.0310
     32 C         142.2874  140.1345  162.5886 C.ar    1  UNL1       -0.0046
     33 C         141.5085  140.5923  161.3912 C.ar    1  UNL1       -0.0045
@<TRIPOS>UNITY_ATOM_ATTR
6 1
charge 1
@<TRIPOS>BOND
     1    14    15    1
     2    15    16   ar
     3    16    17   ar
     4    17    18   ar
     5    18    13    1
     6    13    12    1
     7    12    11    1
     8    11    10    1
     9    10     8    1
    10     8     9    3
    11     9     1    1
    12     1     2   ar
    13     2     3   ar
    14     3     4   ar
    15     4     5   ar
    16     5    21    1
    17    21    22    3
    18    22    23    1
    19    23    24    1
    20    24    25    1
    21    25    26    1
    22    26    27    1
    23    27    28   ar
    24    28    29   ar
    25    29    30   ar
    26    30    31    1
    27    30    32   ar
    28    32    33   ar
    29     5     6   ar
    30     6     7    1
    31    18    19   ar
    32    19    20   ar
    33    20    15   ar
    34     6     1   ar
    35    33    27   ar
@<TRIPOS>MOLECULE
*****
 33 35 0 0 0
SMALL
GASTEIGER

@<TRIPOS>ATOM
      1 C         142.3626  139.6817  162.5707 C.ar    1  UNL1        0.2699
      2 C         141.7630  138.3973  162.0803 C.ar    1  UNL1        0.0787
      3 C         141.3618  137.3346  163.0599 C.ar    1  UNL1        0.0136
      4 C         141.5603  137.5563  164.5301 C.ar    1  UNL1        0.0787
      5 C         142.1600  138.8408  165.0206 C.ar    1  UNL1        0.2699
      6 N         142.5611  139.9035  164.0410 N.ar    1  UNL1       -0.1494
      7 C         143.1608  141.1879  164.5314 C.3     1  UNL1        0.4092
      8 C         143.1650  141.8071  160.6114 C.1     1  UNL1       -0.0482
      9 C         142.7638  140.7444  161.5911 C.1     1  UNL1        0.0064
     10 C         143.5662  142.8698  159.6317 C.3     1  UNL1        0.2183
     11 O         142.5151  143.6451  158.8939 O.3     1  UNL1       -0.3397
     12 C         141.5001  144.4448  159.6556 C.3     1  UNL1        0.1482
     13 C         140.2782  143.7736  160.2091 C.3     1  UNL1        0.0584
     14 C         138.4474  145.0035  165.7890 C.3     1  UNL1        0.0310
     15 C         138.9051  144.6960  164.3940 C.ar    1  UNL1       -0.0219
     16 C         140.2988  145.0496  163.9669 C.ar    1  UNL1       -0.0046
     17 C         140.7565  144.7421  162.5719 C.ar    1  UNL1       -0.0045
     18 C         139.8205  144.0811  161.6041 C.ar    1  UNL1       -0.0197
     19 C         138.4268  143.7275  162.0312 C.ar    1  UNL1       -0.0045
     20 C         137.9691  144.0349  163.4262 C.ar    1  UNL1       -0.0046
     21 C         142.3584  139.0626  166.4908 C.1     1  UNL1        0.0064
     22 C         142.5569  139.2843  167.9609 C.1     1  UNL1       -0.0482
     23 C         142.7553  139.5060  169.4312 C.3     1  UNL1        0.2183
     24 O         141.6603  139.1603  170.3963 O.3     1  UNL1       -0.3397
     25 C         140.4508  140.0407  170.5051 C.3     1  UNL1        0.1482
     26 C         140.2503  141.1634  169.5308 C.3     1  UNL1        0.0584
     27 C         139.7705  140.8724  168.1396 C.ar    1  UNL1       -0.0197
     28 C         138.9470  139.6478  167.8711 C.ar    1  UNL1       -0.0045
     29 C         138.4672  139.3568  166.4801 C.ar    1  UNL1       -0.0046
     30 C         138.8109  140.2905  165.3575 C.ar    1  UNL1       -0.0219
     31 C         138.3311  139.9995  163.9664 C.3     1  UNL1        0.0310
     32 C         139.6344  141.5151  165.6261 C.ar    1  UNL1       -0.0046
     33 C         140.1142  141.8061  167.0171 C.ar    1  UNL1       -0.0045
@<TRIPOS>UNITY_ATOM_ATTR
6 1
charge 1
@<TRIPOS>BOND
     1    14    15    1
     2    15    16   ar
     3    16    17   ar
     4    17    18   ar
     5    18    13    1
     6    13    12    1
     7    12    11    1
     8    11    10    1
     9    10     8    1
    10     8     9    3
    11     9     1    1
    12     1     2   ar
    13     2     3   ar
    14     3     4   ar
    15     4     5   ar
    16     5    21    1
    17    21    22    3
    18    22    23    1
    19    23    24    1
    20    24    25    1
    21    25    26    1
    22    26    27    1
    23    27    28   ar
    24    28    29   ar
    25    29    30   ar
    26    30    31    1
    27    30    32   ar
    28    32    33   ar
    29     5     6   ar
    30     6     7    1
    31    18    19   ar
    32    19    20   ar
    33    20    15   ar
    34     6     1   ar
    35    33    27   ar
@<TRIPOS>MOLECULE
*****
 33 35 0 0 0
SMALL
GASTEIGER

@<TRIPOS>ATOM
      1 C         141.0713  139.9096  161.1849 C.ar    1  UNL1        0.2699
      2 C         141.9827  138.7568  160.8840 C.ar    1  UNL1        0.0787
      3 C         142.1195  137.6324  161.8674 C.ar    1  UNL1        0.0136
      4 C         141.3451  137.6608  163.1516 C.ar    1  UNL1        0.0787
      5 C         140.4337  138.8136  163.4526 C.ar    1  UNL1        0.2699
      6 N         140.2968  139.9380  162.4692 N.ar    1  UNL1       -0.1494
      7 C         139.3855  141.0908  162.7701 C.3     1  UNL1        0.4092
      8 C         140.7976  142.1584  159.2182 C.1     1  UNL1       -0.0482
      9 C         140.9345  141.0340  160.2015 C.1     1  UNL1        0.0064
     10 C         140.6608  143.2828  158.2348 C.3     1  UNL1        0.2183
     11 O         141.4847  144.5257  158.3973 O.3     1  UNL1       -0.3397
     12 C         141.4444  145.2887  159.6881 C.3     1  UNL1        0.1482
     13 C         140.1503  145.4364  160.4320 C.3     1  UNL1        0.0584
     14 C         139.7634  143.6823  166.1568 C.3     1  UNL1        0.0310
     15 C         139.8601  144.1208  164.7256 C.ar    1  UNL1       -0.0219
     16 C         141.1897  144.1274  164.0314 C.ar    1  UNL1       -0.0046
     17 C         141.2865  144.5659  162.6002 C.ar    1  UNL1       -0.0045
     18 C         140.0535  144.9979  161.8632 C.ar    1  UNL1       -0.0197
     19 C         138.7239  144.9913  162.5574 C.ar    1  UNL1       -0.0045
     20 C         138.6272  144.5528  163.9886 C.ar    1  UNL1       -0.0046
     21 C         139.6592  138.8420  164.7368 C.1     1  UNL1        0.0064
     22 C         138.8847  138.8703  166.0211 C.1     1  UNL1       -0.0482
     23 C         138.1103  138.8987  167.3054 C.3     1  UNL1        0.2183
     24 O         138.7318  139.4740  168.5434 O.3     1  UNL1       -0.3397
     25 C         139.8635  140.4519  168.4296 C.3     1  UNL1        0.1482
     26 C         141.2818  139.9700  168.5074 C.3     1  UNL1        0.0584
     27 C         142.1300  139.9322  167.2707 C.ar    1  UNL1       -0.0197
     28 C         142.9906  138.7367  166.9879 C.ar    1  UNL1       -0.0045
     29 C         143.8387  138.6987  165.7513 C.ar    1  UNL1       -0.0046
     30 C         143.8262  139.8563  164.7975 C.ar    1  UNL1       -0.0219
     31 C         144.6743  139.8185  163.5608 C.3     1  UNL1        0.0310
     32 C         142.9655  141.0519  165.0803 C.ar    1  UNL1       -0.0046
     33 C         142.1174  141.0898  166.3169 C.ar    1  UNL1       -0.0045
@<TRIPOS>UNITY_ATOM_ATTR
6 1
charge 1
@<TRIPOS>BOND
     1    14    15    1
     2    15    16   ar
     3    16    17   ar
     4    17    18   ar
     5    18    13    1
     6    13    12    1
     7    12    11    1
     8    11    10    1
     9    10     8    1
    10     8     9    3
    11     9     1    1
    12     1     2   ar
    13     2     3   ar
    14     3     4   ar
    15     4     5   ar
    16     5    21    1
    17    21    22    3
    18    22    23    1
    19    23    24    1
    20    24    25    1
    21    25    26    1
    22    26    27    1
    23    27    28   ar
    24    28    29   ar
    25    29    30   ar
    26    30    31    1
    27    30    32   ar
    28    32    33   ar
    29     5     6   ar
    30     6     7    1
    31    18    19   ar
    32    19    20   ar
    33    20    15   ar
    34     6     1   ar
    35    33    27   ar
