@<TRIPOS>MOLECULE
*****
 33 37 0 0 0
SMALL
GASTEIGER

@<TRIPOS>ATOM
      1 C         141.3274  144.2436  160.2121 C.3     1  UNL1        0.1700
      2 O         141.5155  145.7136  159.9802 O.3     1  UNL1       -0.3793
      3 H         140.6763  146.1054  159.6919 H       1  UNL1        0.2106
      4 C         139.9836  143.6152  159.9896 C.3     1  UNL1        0.2358
      5 O         138.8403  143.9466  160.9022 O.3     1  UNL1       -0.4714
      6 O         137.8070  138.7620  162.0434 O.2     1  UNL1       -0.2707
      7 C         138.1860  139.9538  162.8717 C.2     1  UNL1        0.2708
      8 C         138.3470  139.8146  164.3565 C.3     1  UNL1        0.2897
      9 O         138.7260  141.0063  165.1848 O.3     1  UNL1       -0.4642
     10 C         138.9440  142.3372  164.5283 C.ar    1  UNL1        0.1556
     11 C         139.3231  143.5290  165.3567 C.ar    1  UNL1        0.0384
     12 C         139.5411  144.8599  164.7002 C.ar    1  UNL1        0.0063
     13 C         139.3802  144.9992  163.2153 C.ar    1  UNL1        0.0384
     14 C         139.0012  143.8074  162.3870 C.ar    1  UNL1        0.1550
     15 C         138.7831  142.4764  163.0435 C.ar    1  UNL1        0.1192
     16 N         138.4041  141.2847  162.2152 N.am    1  UNL1       -0.2761
     17 H         138.2985  141.3761  161.2407 H       1  UNL1        0.1551
     18 C         142.4829  143.4021  160.6665 C.3     1  UNL1        0.1056
     19 N         142.5467  142.9188  162.0851 N.3     1  UNL1       -0.2703
     20 C         142.8962  143.8738  163.1878 C.3     1  UNL1        0.0758
     21 C         142.9600  143.3905  164.6063 C.3     1  UNL1        0.0577
     22 C         142.6742  141.9523  164.9222 C.3     1  UNL1        0.1399
     23 C         142.3248  140.9973  163.8196 C.3     1  UNL1        0.0577
     24 C         142.2610  141.4806  162.4011 C.3     1  UNL1        0.0758
     25 C         142.4150  140.5504  165.3886 C.3     1  UNL1        0.0695
     26 C         142.5890  140.5177  166.8782 C.ar    1  UNL1        0.0161
     27 C         142.4609  139.4084  167.8796 C.ar    1  UNL1        0.0102
     28 C         142.6995  139.6807  169.3353 C.ar    1  UNL1        0.0576
     29 CL        142.5714  138.5714  170.3367 Cl      1  UNL1       -0.0823
     30 C         143.0663  141.0624  169.7895 C.ar    1  UNL1        0.0145
     31 C         143.1944  142.1719  168.7881 C.ar    1  UNL1        0.0374
     32 C         142.9558  141.8995  167.3324 C.ar    1  UNL1        0.1343
     33 O         143.0085  142.7861  166.1236 O.3     1  UNL1       -0.4825
@<TRIPOS>BOND
     1     6     7    2
     2     7     8    1
     3     8     9    1
     4     9    10    1
     5    10    11   ar
     6    11    12   ar
     7    12    13   ar
     8    13    14   ar
     9    14     5    1
    10     5     4    1
    11     4     1    1
    12     1     2    1
    13     1    18    1
    14    18    19    1
    15    19    20    1
    16    20    21    1
    17    21    22    1
    18    22    23    1
    19    23    24    1
    20    22    25    1
    21    25    26    1
    22    26    27   ar
    23    27    28   ar
    24    28    29    1
    25    28    30   ar
    26    30    31   ar
    27    31    32   ar
    28    32    33    1
    29    14    15   ar
    30    15    16    1
    31    16     7   am
    32    15    10   ar
    33    24    19    1
    34    32    26   ar
    35    33    22    1
    36     2     3    1
    37    16    17    1
@<TRIPOS>MOLECULE
*****
 33 37 0 0 0
SMALL
GASTEIGER

@<TRIPOS>ATOM
      1 C         142.5420  138.1819  161.0828 C.3     1  UNL1        0.1700
      2 O         143.0647  136.8911  160.5253 O.3     1  UNL1       -0.3793
      3 H         142.3845  136.4800  159.9693 H       1  UNL1        0.2106
      4 C         141.1543  138.6385  160.7423 C.3     1  UNL1        0.2358
      5 O         139.9692  137.9769  161.3808 O.3     1  UNL1       -0.4714
      6 O         138.1746  142.9691  160.3287 O.2     1  UNL1       -0.2707
      7 C         138.2135  142.1163  161.5621 C.2     1  UNL1        0.2708
      8 C         137.6672  142.6432  162.8558 C.3     1  UNL1        0.2897
      9 O         137.7061  141.7904  164.0892 O.3     1  UNL1       -0.4642
     10 C         138.2913  140.4106  164.0288 C.ar    1  UNL1        0.1556
     11 C         138.3302  139.5578  165.2621 C.ar    1  UNL1        0.0384
     12 C         138.9154  138.1780  165.2017 C.ar    1  UNL1        0.0063
     13 C         139.4618  137.6510  163.9079 C.ar    1  UNL1        0.0384
     14 C         139.4229  138.5038  162.6746 C.ar    1  UNL1        0.1550
     15 C         138.8376  139.8837  162.7350 C.ar    1  UNL1        0.1192
     16 N         138.7987  140.7365  161.5017 N.am    1  UNL1       -0.2761
     17 H         139.1573  140.3906  160.6525 H       1  UNL1        0.1551
     18 C         143.4069  139.0160  161.9806 C.3     1  UNL1        0.1056
     19 N         142.9078  139.4245  163.3349 N.3     1  UNL1       -0.2703
     20 C         143.0152  138.4755  164.4915 C.3     1  UNL1        0.0758
     21 C         142.5161  138.8840  165.8457 C.3     1  UNL1        0.0577
     22 C         141.9096  140.2416  166.0433 C.3     1  UNL1        0.1399
     23 C         141.8021  141.1907  164.8867 C.3     1  UNL1        0.0577
     24 C         142.3012  140.7821  163.5325 C.3     1  UNL1        0.0758
     25 C         141.2827  141.5592  166.3914 C.3     1  UNL1        0.0695
     26 C         140.9354  141.5362  167.8505 C.ar    1  UNL1        0.0161
     27 C         140.2970  142.5558  168.7465 C.ar    1  UNL1        0.0102
     28 C         140.0709  142.2438  170.1962 C.ar    1  UNL1        0.0576
     29 CL        139.4326  143.2634  171.0921 Cl      1  UNL1       -0.0823
     30 C         140.4831  140.9121  170.7498 C.ar    1  UNL1        0.0145
     31 C         141.1215  139.8923  169.8539 C.ar    1  UNL1        0.0374
     32 C         141.3476  140.2044  168.4042 C.ar    1  UNL1        0.1343
     33 O         141.9497  139.4043  167.2873 O.3     1  UNL1       -0.4825
@<TRIPOS>BOND
     1     6     7    2
     2     7     8    1
     3     8     9    1
     4     9    10    1
     5    10    11   ar
     6    11    12   ar
     7    12    13   ar
     8    13    14   ar
     9    14     5    1
    10     5     4    1
    11     4     1    1
    12     1     2    1
    13     1    18    1
    14    18    19    1
    15    19    20    1
    16    20    21    1
    17    21    22    1
    18    22    23    1
    19    23    24    1
    20    22    25    1
    21    25    26    1
    22    26    27   ar
    23    27    28   ar
    24    28    29    1
    25    28    30   ar
    26    30    31   ar
    27    31    32   ar
    28    32    33    1
    29    14    15   ar
    30    15    16    1
    31    16     7   am
    32    15    10   ar
    33    24    19    1
    34    32    26   ar
    35    33    22    1
    36     2     3    1
    37    16    17    1
@<TRIPOS>MOLECULE
*****
 33 37 0 0 0
SMALL
GASTEIGER

@<TRIPOS>ATOM
      1 C         140.8425  145.0275  160.8988 C.3     1  UNL1        0.1700
      2 O         141.8627  145.5569  159.9350 O.3     1  UNL1       -0.3793
      3 H         141.7649  145.1070  159.0812 H       1  UNL1        0.2106
      4 C         139.8811  143.9617  160.4631 C.3     1  UNL1        0.2358
      5 O         140.1691  142.5216  160.7681 O.3     1  UNL1       -0.4714
      6 O         143.7001  138.9240  162.7275 O.2     1  UNL1       -0.2707
      7 C         142.3010  139.3168  163.0992 C.2     1  UNL1        0.2708
      8 C         141.6125  138.6413  164.2480 C.3     1  UNL1        0.2897
      9 O         140.2134  139.0341  164.6198 O.3     1  UNL1       -0.4642
     10 C         139.5028  140.1024  163.8428 C.ar    1  UNL1        0.1556
     11 C         138.1037  140.4952  164.2145 C.ar    1  UNL1        0.0384
     12 C         137.3931  141.5634  163.4375 C.ar    1  UNL1        0.0063
     13 C         138.0815  142.2389  162.2887 C.ar    1  UNL1        0.0384
     14 C         139.4806  141.8461  161.9169 C.ar    1  UNL1        0.1550
     15 C         140.1913  140.7778  162.6940 C.ar    1  UNL1        0.1192
     16 N         141.5904  140.3850  162.3222 N.am    1  UNL1       -0.2761
     17 H         142.0422  140.8284  161.5682 H       1  UNL1        0.1551
     18 C         140.7838  145.5639  162.2984 C.3     1  UNL1        0.1056
     19 N         140.8725  144.6257  163.4655 N.3     1  UNL1       -0.2703
     20 C         139.7368  144.5327  164.4410 C.3     1  UNL1        0.0758
     21 C         139.8256  143.5945  165.6080 C.3     1  UNL1        0.0577
     22 C         141.0500  142.7495  165.7996 C.3     1  UNL1        0.1399
     23 C         142.1856  142.8425  164.8241 C.3     1  UNL1        0.0577
     24 C         142.0969  143.7806  163.6571 C.3     1  UNL1        0.0758
     25 C         142.2045  141.8468  166.1194 C.3     1  UNL1        0.0695
     26 C         141.8678  141.0887  167.3693 C.ar    1  UNL1        0.0161
     27 C         142.6259  140.0592  168.1537 C.ar    1  UNL1        0.0102
     28 C         142.0214  139.4638  169.3907 C.ar    1  UNL1        0.0576
     29 CL        142.7795  138.4343  170.1751 Cl      1  UNL1       -0.0823
     30 C         140.6589  139.8980  169.8433 C.ar    1  UNL1        0.0145
     31 C         139.9007  140.9275  169.0589 C.ar    1  UNL1        0.0374
     32 C         140.5052  141.5229  167.8218 C.ar    1  UNL1        0.1343
     33 O         139.9997  142.5493  166.8518 O.3     1  UNL1       -0.4825
@<TRIPOS>BOND
     1     6     7    2
     2     7     8    1
     3     8     9    1
     4     9    10    1
     5    10    11   ar
     6    11    12   ar
     7    12    13   ar
     8    13    14   ar
     9    14     5    1
    10     5     4    1
    11     4     1    1
    12     1     2    1
    13     1    18    1
    14    18    19    1
    15    19    20    1
    16    20    21    1
    17    21    22    1
    18    22    23    1
    19    23    24    1
    20    22    25    1
    21    25    26    1
    22    26    27   ar
    23    27    28   ar
    24    28    29    1
    25    28    30   ar
    26    30    31   ar
    27    31    32   ar
    28    32    33    1
    29    14    15   ar
    30    15    16    1
    31    16     7   am
    32    15    10   ar
    33    24    19    1
    34    32    26   ar
    35    33    22    1
    36     2     3    1
    37    16    17    1
@<TRIPOS>MOLECULE
*****
 33 37 0 0 0
SMALL
GASTEIGER

@<TRIPOS>ATOM
      1 C         137.8025  139.9990  160.5476 C.3     1  UNL1        0.1700
      2 O         136.3730  139.5629  160.4205 O.3     1  UNL1       -0.3793
      3 H         136.3397  138.6689  160.0455 H       1  UNL1        0.2106
      4 C         138.9079  139.0806  160.1175 C.3     1  UNL1        0.2358
      5 O         139.1898  137.8301  160.8963 O.3     1  UNL1       -0.4714
      6 O         144.4362  138.9882  160.2769 O.2     1  UNL1       -0.2707
      7 C         143.5537  138.7670  161.4695 C.2     1  UNL1        0.2708
      8 C         144.1257  138.8582  162.8530 C.3     1  UNL1        0.2897
      9 O         143.2432  138.6370  164.0456 O.3     1  UNL1       -0.4642
     10 C         141.7886  138.3247  163.8546 C.ar    1  UNL1        0.1556
     11 C         140.9061  138.1036  165.0472 C.ar    1  UNL1        0.0384
     12 C         139.4515  137.7913  164.8561 C.ar    1  UNL1        0.0063
     13 C         138.8793  137.7001  163.4725 C.ar    1  UNL1        0.0384
     14 C         139.7618  137.9212  162.2799 C.ar    1  UNL1        0.1550
     15 C         141.2165  138.2336  162.4710 C.ar    1  UNL1        0.1192
     16 N         142.0991  138.4547  161.2784 N.am    1  UNL1       -0.2761
     17 H         141.7236  138.3949  160.3703 H       1  UNL1        0.1551
     18 C         138.1268  141.3533  161.1048 C.3     1  UNL1        0.1056
     19 N         138.8107  141.4732  162.4345 N.3     1  UNL1       -0.2703
     20 C         138.0269  141.2898  163.7002 C.3     1  UNL1        0.0758
     21 C         138.7107  141.4097  165.0298 C.3     1  UNL1        0.0577
     22 C         140.1784  141.7129  165.0938 C.3     1  UNL1        0.1399
     23 C         140.9621  141.8963  163.8281 C.3     1  UNL1        0.0577
     24 C         140.2783  141.7764  162.4985 C.3     1  UNL1        0.0758
     25 C         141.6319  142.0107  165.3140 C.3     1  UNL1        0.0695
     26 C         141.8807  142.0379  166.7931 C.ar    1  UNL1        0.0161
     27 C         143.1228  142.2821  167.5977 C.ar    1  UNL1        0.0102
     28 C         143.0651  142.2454  169.0961 C.ar    1  UNL1        0.0576
     29 CL        144.3072  142.4897  169.9007 Cl      1  UNL1       -0.0823
     30 C         141.7652  141.9645  169.7900 C.ar    1  UNL1        0.0145
     31 C         140.5230  141.7202  168.9854 C.ar    1  UNL1        0.0374
     32 C         140.5807  141.7569  167.4869 C.ar    1  UNL1        0.1343
     33 O         139.5287  141.5561  166.4368 O.3     1  UNL1       -0.4825
@<TRIPOS>BOND
     1     6     7    2
     2     7     8    1
     3     8     9    1
     4     9    10    1
     5    10    11   ar
     6    11    12   ar
     7    12    13   ar
     8    13    14   ar
     9    14     5    1
    10     5     4    1
    11     4     1    1
    12     1     2    1
    13     1    18    1
    14    18    19    1
    15    19    20    1
    16    20    21    1
    17    21    22    1
    18    22    23    1
    19    23    24    1
    20    22    25    1
    21    25    26    1
    22    26    27   ar
    23    27    28   ar
    24    28    29    1
    25    28    30   ar
    26    30    31   ar
    27    31    32   ar
    28    32    33    1
    29    14    15   ar
    30    15    16    1
    31    16     7   am
    32    15    10   ar
    33    24    19    1
    34    32    26   ar
    35    33    22    1
    36     2     3    1
    37    16    17    1
@<TRIPOS>MOLECULE
*****
 33 37 0 0 0
SMALL
GASTEIGER

@<TRIPOS>ATOM
      1 C         138.7517  141.1040  160.0524 C.3     1  UNL1        0.1700
      2 O         139.7129  140.8481  158.9297 O.3     1  UNL1       -0.3793
      3 H         139.8549  141.6687  158.4322 H       1  UNL1        0.2106
      4 C         138.1784  142.4759  160.2509 C.3     1  UNL1        0.2358
      5 O         139.0065  143.5492  160.8929 O.3     1  UNL1       -0.4714
      6 O         144.0629  142.3047  162.3536 O.2     1  UNL1       -0.2707
      7 C         142.8311  142.7065  163.1093 C.2     1  UNL1        0.2708
      8 C         142.8741  142.8275  164.6037 C.3     1  UNL1        0.2897
      9 O         141.6423  143.2293  165.3595 O.3     1  UNL1       -0.4642
     10 C         140.3674  143.5102  164.6207 C.ar    1  UNL1        0.1556
     11 C         139.1356  143.9120  165.3764 C.ar    1  UNL1        0.0384
     12 C         137.8607  144.1929  164.6377 C.ar    1  UNL1        0.0063
     13 C         137.8177  144.0719  163.1431 C.ar    1  UNL1        0.0384
     14 C         139.0495  143.6701  162.3874 C.ar    1  UNL1        0.1550
     15 C         140.3244  143.3892  163.1262 C.ar    1  UNL1        0.1192
     16 N         141.5562  142.9874  162.3705 N.am    1  UNL1       -0.2761
     17 H         141.5280  142.9080  161.3896 H       1  UNL1        0.1551
     18 C         138.3638  139.9881  160.9767 C.3     1  UNL1        0.1056
     19 N         138.8333  139.9966  162.4013 N.3     1  UNL1       -0.2703
     20 C         137.8704  140.3149  163.5065 C.3     1  UNL1        0.0758
     21 C         138.3401  140.3233  164.9310 C.3     1  UNL1        0.0577
     22 C         139.7726  140.0136  165.2504 C.3     1  UNL1        0.1399
     23 C         140.7355  139.6954  164.1452 C.3     1  UNL1        0.0577
     24 C         140.2659  139.6869  162.7206 C.3     1  UNL1        0.0758
     25 C         141.1675  139.7253  165.7206 C.3     1  UNL1        0.0695
     26 C         141.1867  139.8454  167.2158 C.ar    1  UNL1        0.0161
     27 C         142.2849  139.6715  168.2226 C.ar    1  UNL1        0.0102
     28 C         142.0001  139.8601  169.6832 C.ar    1  UNL1        0.0576
     29 CL        143.0982  139.6862  170.6900 Cl      1  UNL1       -0.0823
     30 C         140.6171  140.2226  170.1369 C.ar    1  UNL1        0.0145
     31 C         139.5189  140.3966  169.1301 C.ar    1  UNL1        0.0374
     32 C         139.8037  140.2079  167.6695 C.ar    1  UNL1        0.1343
     33 O         138.9297  140.3119  166.4549 O.3     1  UNL1       -0.4825
@<TRIPOS>BOND
     1     6     7    2
     2     7     8    1
     3     8     9    1
     4     9    10    1
     5    10    11   ar
     6    11    12   ar
     7    12    13   ar
     8    13    14   ar
     9    14     5    1
    10     5     4    1
    11     4     1    1
    12     1     2    1
    13     1    18    1
    14    18    19    1
    15    19    20    1
    16    20    21    1
    17    21    22    1
    18    22    23    1
    19    23    24    1
    20    22    25    1
    21    25    26    1
    22    26    27   ar
    23    27    28   ar
    24    28    29    1
    25    28    30   ar
    26    30    31   ar
    27    31    32   ar
    28    32    33    1
    29    14    15   ar
    30    15    16    1
    31    16     7   am
    32    15    10   ar
    33    24    19    1
    34    32    26   ar
    35    33    22    1
    36     2     3    1
    37    16    17    1
@<TRIPOS>MOLECULE
*****
 33 37 0 0 0
SMALL
GASTEIGER

@<TRIPOS>ATOM
      1 C         138.6643  138.8228  160.5822 C.3     1  UNL1        0.1700
      2 O         139.4852  138.5499  159.3567 O.3     1  UNL1       -0.3793
      3 H         139.2210  139.1579  158.6486 H       1  UNL1        0.2106
      4 C         137.6274  139.9066  160.5642 C.3     1  UNL1        0.2358
      5 O         138.0442  141.3449  160.6500 O.3     1  UNL1       -0.4714
      6 O         142.4304  144.4336  159.9639 O.2     1  UNL1       -0.2707
      7 C         141.5480  144.1263  161.1373 C.2     1  UNL1        0.2708
      8 C         141.8334  144.7461  162.4731 C.3     1  UNL1        0.2897
      9 O         140.9509  144.4387  163.6464 O.3     1  UNL1       -0.4642
     10 C         139.7830  143.5116  163.4840 C.ar    1  UNL1        0.1556
     11 C         138.9005  143.2043  164.6574 C.ar    1  UNL1        0.0384
     12 C         137.7326  142.2772  164.4949 C.ar    1  UNL1        0.0063
     13 C         137.4471  141.6574  163.1591 C.ar    1  UNL1        0.0384
     14 C         138.3296  141.9647  161.9857 C.ar    1  UNL1        0.1550
     15 C         139.4976  142.8919  162.1482 C.ar    1  UNL1        0.1192
     16 N         140.3801  143.1992  160.9749 N.am    1  UNL1       -0.2761
     17 H         140.1927  142.7924  160.0981 H       1  UNL1        0.1551
     18 C         138.8805  138.0121  161.8255 C.3     1  UNL1        0.1056
     19 N         139.4433  138.6607  163.0554 N.3     1  UNL1       -0.2703
     20 C         140.6723  139.5149  162.9573 C.3     1  UNL1        0.0758
     21 C         141.2350  140.1634  164.1872 C.3     1  UNL1        0.0577
     22 C         140.5687  139.9577  165.5153 C.3     1  UNL1        0.1399
     23 C         139.3397  139.1035  165.6134 C.3     1  UNL1        0.0577
     24 C         138.7769  138.4549  164.3835 C.3     1  UNL1        0.0758
     25 C         140.0142  139.8438  166.9043 C.3     1  UNL1        0.0695
     26 C         140.8876  140.6498  167.8197 C.ar    1  UNL1        0.0161
     27 C         140.8278  140.9054  169.2965 C.ar    1  UNL1        0.0102
     28 C         141.8623  141.7731  169.9499 C.ar    1  UNL1        0.0576
     29 CL        141.8025  142.0288  171.4267 Cl      1  UNL1       -0.0823
     30 C         142.9566  142.3851  169.1266 C.ar    1  UNL1        0.0145
     31 C         143.0164  142.1294  167.6497 C.ar    1  UNL1        0.0374
     32 C         141.9819  141.2618  166.9962 C.ar    1  UNL1        0.1343
     33 O         141.7848  140.8341  165.5721 O.3     1  UNL1       -0.4825
@<TRIPOS>BOND
     1     6     7    2
     2     7     8    1
     3     8     9    1
     4     9    10    1
     5    10    11   ar
     6    11    12   ar
     7    12    13   ar
     8    13    14   ar
     9    14     5    1
    10     5     4    1
    11     4     1    1
    12     1     2    1
    13     1    18    1
    14    18    19    1
    15    19    20    1
    16    20    21    1
    17    21    22    1
    18    22    23    1
    19    23    24    1
    20    22    25    1
    21    25    26    1
    22    26    27   ar
    23    27    28   ar
    24    28    29    1
    25    28    30   ar
    26    30    31   ar
    27    31    32   ar
    28    32    33    1
    29    14    15   ar
    30    15    16    1
    31    16     7   am
    32    15    10   ar
    33    24    19    1
    34    32    26   ar
    35    33    22    1
    36     2     3    1
    37    16    17    1
@<TRIPOS>MOLECULE
*****
 33 37 0 0 0
SMALL
GASTEIGER

@<TRIPOS>ATOM
      1 C         141.7350  142.7102  159.3842 C.3     1  UNL1        0.1700
      2 O         141.9909  144.1747  159.1849 O.3     1  UNL1       -0.3793
      3 H         141.3813  144.5212  158.5148 H       1  UNL1        0.2106
      4 C         140.6627  142.0217  158.5928 C.3     1  UNL1        0.2358
      5 O         139.2185  142.2629  158.9183 O.3     1  UNL1       -0.4714
      6 O         139.8954  146.6979  161.9387 O.2     1  UNL1       -0.2707
      7 C         139.3296  145.3344  162.2051 C.2     1  UNL1        0.2708
      8 C         138.8009  144.9948  163.5671 C.3     1  UNL1        0.2897
      9 O         138.2351  143.6314  163.8335 O.3     1  UNL1       -0.4642
     10 C         138.1980  142.6076  162.7379 C.ar    1  UNL1        0.1556
     11 C         137.6323  141.2441  163.0043 C.ar    1  UNL1        0.0384
     12 C         137.5952  140.2203  161.9087 C.ar    1  UNL1        0.0063
     13 C         138.1240  140.5599  160.5466 C.ar    1  UNL1        0.0384
     14 C         138.6898  141.9233  160.2802 C.ar    1  UNL1        0.1550
     15 C         138.7268  142.9472  161.3759 C.ar    1  UNL1        0.1192
     16 N         139.2926  144.3106  161.1095 N.am    1  UNL1       -0.2761
     17 H         139.6396  144.5335  160.2156 H       1  UNL1        0.1551
     18 C         142.5514  141.9341  160.3748 C.3     1  UNL1        0.1056
     19 N         142.1090  141.8451  161.8053 N.3     1  UNL1       -0.2703
     20 C         141.5273  140.5669  162.3323 C.3     1  UNL1        0.0758
     21 C         141.0849  140.4779  163.7628 C.3     1  UNL1        0.0577
     22 C         141.2243  141.6671  164.6663 C.3     1  UNL1        0.1399
     23 C         141.8060  142.9453  164.1394 C.3     1  UNL1        0.0577
     24 C         142.2484  143.0343  162.7089 C.3     1  UNL1        0.0758
     25 C         141.3011  142.7673  165.6831 C.3     1  UNL1        0.0695
     26 C         140.7517  142.2424  166.9765 C.ar    1  UNL1        0.0161
     27 C         140.5768  142.8775  168.3240 C.ar    1  UNL1        0.0102
     28 C         139.9855  142.0882  169.4542 C.ar    1  UNL1        0.0576
     29 CL        139.8105  142.7233  170.8017 Cl      1  UNL1       -0.0823
     30 C         139.5691  140.6636  169.2368 C.ar    1  UNL1        0.0145
     31 C         139.7440  140.0284  167.8892 C.ar    1  UNL1        0.0374
     32 C         140.3353  140.8178  166.7590 C.ar    1  UNL1        0.1343
     33 O         140.6274  140.4622  165.3313 O.3     1  UNL1       -0.4825
@<TRIPOS>BOND
     1     6     7    2
     2     7     8    1
     3     8     9    1
     4     9    10    1
     5    10    11   ar
     6    11    12   ar
     7    12    13   ar
     8    13    14   ar
     9    14     5    1
    10     5     4    1
    11     4     1    1
    12     1     2    1
    13     1    18    1
    14    18    19    1
    15    19    20    1
    16    20    21    1
    17    21    22    1
    18    22    23    1
    19    23    24    1
    20    22    25    1
    21    25    26    1
    22    26    27   ar
    23    27    28   ar
    24    28    29    1
    25    28    30   ar
    26    30    31   ar
    27    31    32   ar
    28    32    33    1
    29    14    15   ar
    30    15    16    1
    31    16     7   am
    32    15    10   ar
    33    24    19    1
    34    32    26   ar
    35    33    22    1
    36     2     3    1
    37    16    17    1
@<TRIPOS>MOLECULE
*****
 33 37 0 0 0
SMALL
GASTEIGER

@<TRIPOS>ATOM
      1 C         143.7247  139.3883  160.0010 C.3     1  UNL1        0.1700
      2 O         143.3754  138.8730  158.6363 O.3     1  UNL1       -0.3793
      3 H         143.3012  139.6173  158.0188 H       1  UNL1        0.2106
      4 C         143.9011  140.8612  160.2240 C.3     1  UNL1        0.2358
      5 O         142.7446  141.6921  160.6952 O.3     1  UNL1       -0.4714
      6 O         137.5146  141.8418  162.0645 O.2     1  UNL1       -0.2707
      7 C         138.7883  142.1697  162.7856 C.2     1  UNL1        0.2708
      8 C         138.7434  142.6569  164.2036 C.3     1  UNL1        0.2897
      9 O         140.0171  142.9848  164.9247 O.3     1  UNL1       -0.4642
     10 C         141.3358  142.8256  164.2279 C.ar    1  UNL1        0.1556
     11 C         142.6095  143.1536  164.9491 C.ar    1  UNL1        0.0384
     12 C         143.9283  142.9944  164.2523 C.ar    1  UNL1        0.0063
     13 C         143.9733  142.5072  162.8342 C.ar    1  UNL1        0.0384
     14 C         142.6996  142.1793  162.1131 C.ar    1  UNL1        0.1550
     15 C         141.3808  142.3385  162.8100 C.ar    1  UNL1        0.1192
     16 N         140.1071  142.0105  162.0888 N.am    1  UNL1       -0.2761
     17 H         140.1366  141.6908  161.1582 H       1  UNL1        0.1551
     18 C         143.8978  138.4309  161.1426 C.3     1  UNL1        0.1056
     19 N         143.2920  138.7405  162.4795 N.3     1  UNL1       -0.2703
     20 C         141.8015  138.7340  162.6471 C.3     1  UNL1        0.0758
     21 C         141.1957  139.0435  163.9840 C.3     1  UNL1        0.0577
     22 C         142.0806  139.3596  165.1532 C.3     1  UNL1        0.1399
     23 C         143.5712  139.3661  164.9856 C.3     1  UNL1        0.0577
     24 C         144.1769  139.0565  163.6488 C.3     1  UNL1        0.0758
     25 C         142.8341  139.6922  166.4069 C.3     1  UNL1        0.0695
     26 C         141.8342  139.9291  167.4997 C.ar    1  UNL1        0.0161
     27 C         141.9953  140.2903  168.9466 C.ar    1  UNL1        0.0102
     28 C         140.7850  140.4653  169.8152 C.ar    1  UNL1        0.0576
     29 CL        140.9461  140.8265  171.2621 Cl      1  UNL1       -0.0823
     30 C         139.4135  140.2790  169.2370 C.ar    1  UNL1        0.0145
     31 C         139.2523  139.9178  167.7900 C.ar    1  UNL1        0.0374
     32 C         140.4627  139.7429  166.9214 C.ar    1  UNL1        0.1343
     33 O         140.6150  139.3909  165.4713 O.3     1  UNL1       -0.4825
@<TRIPOS>BOND
     1     6     7    2
     2     7     8    1
     3     8     9    1
     4     9    10    1
     5    10    11   ar
     6    11    12   ar
     7    12    13   ar
     8    13    14   ar
     9    14     5    1
    10     5     4    1
    11     4     1    1
    12     1     2    1
    13     1    18    1
    14    18    19    1
    15    19    20    1
    16    20    21    1
    17    21    22    1
    18    22    23    1
    19    23    24    1
    20    22    25    1
    21    25    26    1
    22    26    27   ar
    23    27    28   ar
    24    28    29    1
    25    28    30   ar
    26    30    31   ar
    27    31    32   ar
    28    32    33    1
    29    14    15   ar
    30    15    16    1
    31    16     7   am
    32    15    10   ar
    33    24    19    1
    34    32    26   ar
    35    33    22    1
    36     2     3    1
    37    16    17    1
@<TRIPOS>MOLECULE
*****
 33 37 0 0 0
SMALL
GASTEIGER

@<TRIPOS>ATOM
      1 C         139.8616  139.3520  159.5705 C.3     1  UNL1        0.1700
      2 O         139.2638  138.6405  158.3930 O.3     1  UNL1       -0.3793
      3 H         138.4823  139.1254  158.0848 H       1  UNL1        0.2106
      4 C         139.2333  140.6145  160.0820 C.3     1  UNL1        0.2358
      5 O         138.0433  140.5445  160.9924 O.3     1  UNL1       -0.4714
      6 O         138.8679  145.8263  161.8125 O.2     1  UNL1       -0.2707
      7 C         138.7945  144.6323  162.7174 C.2     1  UNL1        0.2708
      8 C         138.9715  144.8008  164.1974 C.3     1  UNL1        0.2897
      9 O         138.8981  143.6068  165.1023 O.3     1  UNL1       -0.4642
     10 C         138.6477  142.2442  164.5273 C.ar    1  UNL1        0.1556
     11 C         138.5743  141.0502  165.4322 C.ar    1  UNL1        0.0384
     12 C         138.3239  139.6876  164.8573 C.ar    1  UNL1        0.0063
     13 C         138.1469  139.5190  163.3773 C.ar    1  UNL1        0.0384
     14 C         138.2203  140.7130  162.4723 C.ar    1  UNL1        0.1550
     15 C         138.4707  142.0757  163.0474 C.ar    1  UNL1        0.1192
     16 N         138.5441  143.2697  162.1424 N.am    1  UNL1       -0.2761
     17 H         138.4279  143.1591  161.1711 H       1  UNL1        0.1551
     18 C         141.0875  138.8012  160.2365 C.3     1  UNL1        0.1056
     19 N         141.3877  139.1522  161.6636 N.3     1  UNL1       -0.2703
     20 C         141.3026  138.0996  162.7288 C.3     1  UNL1        0.0758
     21 C         141.6027  138.4506  164.1558 C.3     1  UNL1        0.0577
     22 C         141.9879  139.8544  164.5178 C.3     1  UNL1        0.1399
     23 C         142.0730  140.9071  163.4527 C.3     1  UNL1        0.0577
     24 C         141.7729  140.5560  162.0256 C.3     1  UNL1        0.0758
     25 C         142.3840  141.2082  165.0282 C.3     1  UNL1        0.0695
     26 C         142.5856  141.1038  166.5110 C.ar    1  UNL1        0.0161
     27 C         142.9812  142.1170  167.5439 C.ar    1  UNL1        0.0102
     28 C         143.1054  141.7119  168.9828 C.ar    1  UNL1        0.0576
     29 CL        143.5011  142.7250  170.0157 Cl      1  UNL1       -0.0823
     30 C         142.8339  140.2937  169.3888 C.ar    1  UNL1        0.0145
     31 C         142.4382  139.2805  168.3559 C.ar    1  UNL1        0.0374
     32 C         142.3141  139.6855  166.9170 C.ar    1  UNL1        0.1343
     33 O         141.9447  138.9134  165.6852 O.3     1  UNL1       -0.4825
@<TRIPOS>BOND
     1     6     7    2
     2     7     8    1
     3     8     9    1
     4     9    10    1
     5    10    11   ar
     6    11    12   ar
     7    12    13   ar
     8    13    14   ar
     9    14     5    1
    10     5     4    1
    11     4     1    1
    12     1     2    1
    13     1    18    1
    14    18    19    1
    15    19    20    1
    16    20    21    1
    17    21    22    1
    18    22    23    1
    19    23    24    1
    20    22    25    1
    21    25    26    1
    22    26    27   ar
    23    27    28   ar
    24    28    29    1
    25    28    30   ar
    26    30    31   ar
    27    31    32   ar
    28    32    33    1
    29    14    15   ar
    30    15    16    1
    31    16     7   am
    32    15    10   ar
    33    24    19    1
    34    32    26   ar
    35    33    22    1
    36     2     3    1
    37    16    17    1
