@<TRIPOS>MOLECULE
*****
 38 42 0 0 0
SMALL
GASTEIGER

@<TRIPOS>ATOM
      1 C         145.2168  141.0567  156.7989 C.ar    1  UNL1        0.2183
      2 N         145.4891  142.3278  157.5471 N.ar    1  UNL1       -0.2122
      3 C         144.9530  142.5100  158.9362 C.ar    1  UNL1        0.1048
      4 C         144.1446  141.4211  159.5769 C.ar    1  UNL1        0.0537
      5 C         143.6085  141.6034  160.9659 C.ar    1  UNL1        0.0093
      6 C         142.8000  140.5145  161.6067 C.ar    1  UNL1        0.0572
      7 C         142.5276  139.2432  160.8584 C.ar    1  UNL1        0.2620
      8 O         141.7191  138.1543  161.4991 O.2     1  UNL1       -0.2669
      9 N         143.0637  139.0610  159.4694 N.ar    1  UNL1       -0.2753
     10 C         143.8722  140.1500  158.8286 C.ar    1  UNL1        0.1505
     11 N         144.4083  139.9678  157.4396 N.ar    1  UNL1       -0.1963
     12 C         142.2639  140.6967  162.9957 C.ar    1  UNL1        0.0152
     13 C         140.9195  141.3288  163.2038 C.ar    1  UNL1        0.0010
     14 C         140.3834  141.5111  164.5929 C.ar    1  UNL1        0.0016
     15 C         141.1917  141.0612  165.7737 C.ar    1  UNL1        0.0185
     16 C         142.5359  140.4291  165.5656 C.ar    1  UNL1        0.0129
     17 C         143.0720  140.2468  164.1766 C.ar    1  UNL1        0.0578
     18 CL        144.4163  139.6147  163.9684 Cl      1  UNL1       -0.0822
     19 C         140.6556  141.2434  167.1628 C.ar    1  UNL1        0.0809
     20 C         139.9244  140.1209  167.8378 C.ar    1  UNL1        0.0191
     21 C         139.3883  140.3031  169.2268 C.ar    1  UNL1        0.0028
     22 C         139.5834  141.6079  169.9408 C.ar    1  UNL1        0.0147
     23 C         140.3145  142.7303  169.2658 C.ar    1  UNL1        0.0593
     24 C         140.5094  144.0349  169.9798 C.3     1  UNL1        0.0521
     25 N         140.8506  142.5480  167.8768 N.ar    1  UNL1       -0.2497
     26 C         146.9470  141.6615  154.9575 C.3     1  UNL1        0.1108
     27 N         145.7529  140.8744  155.4098 N.pl3   1  UNL1       -0.3013
     28 H         145.3210  140.2382  154.7950 H       1  UNL1        0.1497
     29 C         142.7913  137.7899  158.7211 C.3     1  UNL1        0.1716
     30 C         141.6314  137.7114  157.7732 C.3     1  UNL1        0.2589
     31 O         141.6086  136.6626  156.7011 O.3     1  UNL1       -0.3275
     32 C         140.4487  136.5841  155.7532 C.3     1  UNL1        0.1628
     33 C         139.3115  137.5543  155.8775 C.3     1  UNL1        0.1110
     34 N         138.1516  137.4758  154.9296 N.3     1  UNL1       -0.3182
     35 C         139.3343  138.6031  156.9497 C.3     1  UNL1        0.1628
     36 O         140.4942  138.6817  157.8976 O.3     1  UNL1       -0.3275
     37 H         137.4762  138.2054  155.1577 H       1  UNL1        0.1190
     38 H         137.7061  136.5620  155.0125 H       1  UNL1        0.1190
@<TRIPOS>BOND
     1    26    27    1
     2    27     1    1
     3     1     2   ar
     4     2     3   ar
     5     3     4   ar
     6     4     5   ar
     7     5     6   ar
     8     6    12    1
     9    12    13   ar
    10    13    14   ar
    11    14    15   ar
    12    15    19    1
    13    19    20   ar
    14    20    21   ar
    15    21    22   ar
    16    22    23   ar
    17    23    24    1
    18    23    25   ar
    19    15    16   ar
    20    16    17   ar
    21    17    18    1
    22     6     7   ar
    23     7     8    2
    24     7     9   ar
    25     9    29    1
    26    30    29    1
    27    30    31    1
    28    31    32    1
    29    32    33    1
    30    33    34    1
    31    33    35    1
    32    35    36    1
    33     9    10   ar
    34    10    11   ar
    35    11     1   ar
    36    10     4   ar
    37    17    12   ar
    38    36    30    1
    39    25    19   ar
    40    27    28    1
    41    34    37    1
    42    34    38    1
@<TRIPOS>MOLECULE
*****
 38 42 0 0 0
SMALL
GASTEIGER

@<TRIPOS>ATOM
      1 C         139.6963  144.2281  163.1746 C.ar    1  UNL1        0.2183
      2 N         139.3845  144.6599  161.7723 N.ar    1  UNL1       -0.2122
      3 C         139.5827  143.7057  160.6321 C.ar    1  UNL1        0.1048
      4 C         140.0927  142.3196  160.8941 C.ar    1  UNL1        0.0537
      5 C         140.2909  141.3654  159.7539 C.ar    1  UNL1        0.0093
      6 C         140.8009  139.9793  160.0159 C.ar    1  UNL1        0.0572
      7 C         141.1127  139.5474  161.4182 C.ar    1  UNL1        0.2620
      8 O         141.6227  138.1614  161.6802 O.2     1  UNL1       -0.2669
      9 N         140.9145  140.5017  162.5584 N.ar    1  UNL1       -0.2753
     10 C         140.4045  141.8878  162.2964 C.ar    1  UNL1        0.1505
     11 N         140.2063  142.8421  163.4366 N.ar    1  UNL1       -0.1963
     12 C         140.9991  139.0250  158.8757 C.ar    1  UNL1        0.0152
     13 C         139.8117  138.3947  158.2102 C.ar    1  UNL1        0.0010
     14 C         140.0099  137.4405  157.0699 C.ar    1  UNL1        0.0016
     15 C         141.3955  137.1165  156.5953 C.ar    1  UNL1        0.0185
     16 C         142.5828  137.7468  157.2608 C.ar    1  UNL1        0.0129
     17 C         142.3846  138.7011  158.4010 C.ar    1  UNL1        0.0578
     18 CL        143.5719  139.3314  159.0666 Cl      1  UNL1       -0.0822
     19 C         141.5937  136.1623  155.4550 C.ar    1  UNL1        0.0809
     20 C         141.1593  136.5462  154.0715 C.ar    1  UNL1        0.0191
     21 C         141.3575  135.5920  152.9313 C.ar    1  UNL1        0.0028
     22 C         141.9901  134.2537  153.1746 C.ar    1  UNL1        0.0147
     23 C         142.4244  133.8698  154.5580 C.ar    1  UNL1        0.0593
     24 C         143.0568  132.5316  154.8013 C.3     1  UNL1        0.0521
     25 N         142.2262  134.8241  155.6983 N.ar    1  UNL1       -0.2497
     26 C         138.5951  144.8126  165.4540 C.3     1  UNL1        0.1108
     27 N         139.4981  145.1824  164.3148 N.pl3   1  UNL1       -0.3013
     28 H         139.9607  146.0515  164.3155 H       1  UNL1        0.1497
     29 C         141.2263  140.0699  163.9607 C.3     1  UNL1        0.1716
     30 C         140.1547  139.4566  164.8124 C.3     1  UNL1        0.2589
     31 O         139.5754  140.2287  165.9604 O.3     1  UNL1       -0.3275
     32 C         138.5037  139.6154  166.8121 C.3     1  UNL1        0.1628
     33 C         138.0114  138.2298  166.5158 C.3     1  UNL1        0.1110
     34 N         136.9398  137.6165  167.3675 N.3     1  UNL1       -0.3182
     35 C         138.5907  137.4576  165.3677 C.3     1  UNL1        0.1628
     36 O         139.6624  138.0709  164.5160 O.3     1  UNL1       -0.3275
     37 H         136.7291  136.6788  167.0259 H       1  UNL1        0.1190
     38 H         136.0987  138.1918  167.3223 H       1  UNL1        0.1190
@<TRIPOS>BOND
     1    26    27    1
     2    27     1    1
     3     1     2   ar
     4     2     3   ar
     5     3     4   ar
     6     4     5   ar
     7     5     6   ar
     8     6    12    1
     9    12    13   ar
    10    13    14   ar
    11    14    15   ar
    12    15    19    1
    13    19    20   ar
    14    20    21   ar
    15    21    22   ar
    16    22    23   ar
    17    23    24    1
    18    23    25   ar
    19    15    16   ar
    20    16    17   ar
    21    17    18    1
    22     6     7   ar
    23     7     8    2
    24     7     9   ar
    25     9    29    1
    26    30    29    1
    27    30    31    1
    28    31    32    1
    29    32    33    1
    30    33    34    1
    31    33    35    1
    32    35    36    1
    33     9    10   ar
    34    10    11   ar
    35    11     1   ar
    36    10     4   ar
    37    17    12   ar
    38    36    30    1
    39    25    19   ar
    40    27    28    1
    41    34    37    1
    42    34    38    1
@<TRIPOS>MOLECULE
*****
 38 42 0 0 0
SMALL
GASTEIGER

@<TRIPOS>ATOM
      1 C         139.7372  138.0757  162.7080 C.ar    1  UNL1        0.2183
      2 N         140.9540  137.2184  162.5227 N.ar    1  UNL1       -0.2122
      3 C         142.0333  137.6436  161.5718 C.ar    1  UNL1        0.1048
      4 C         141.8959  138.9261  160.8061 C.ar    1  UNL1        0.0537
      5 C         142.9752  139.3513  159.8552 C.ar    1  UNL1        0.0093
      6 C         142.8377  140.6338  159.0896 C.ar    1  UNL1        0.0572
      7 C         141.6208  141.4911  159.2748 C.ar    1  UNL1        0.2620
      8 O         141.4834  142.7736  158.5091 O.2     1  UNL1       -0.2669
      9 N         140.5415  141.0659  160.2257 N.ar    1  UNL1       -0.2753
     10 C         140.6790  139.7834  160.9914 C.ar    1  UNL1        0.1505
     11 N         139.5997  139.3582  161.9423 N.ar    1  UNL1       -0.1963
     12 C         143.9171  141.0590  158.1386 C.ar    1  UNL1        0.0152
     13 C         143.9892  140.4550  156.7674 C.ar    1  UNL1        0.0010
     14 C         145.0686  140.8802  155.8165 C.ar    1  UNL1        0.0016
     15 C         146.0758  141.9093  156.2368 C.ar    1  UNL1        0.0185
     16 C         146.0036  142.5132  157.6080 C.ar    1  UNL1        0.0129
     17 C         144.9242  142.0880  158.5589 C.ar    1  UNL1        0.0578
     18 CL        144.8520  142.6919  159.9300 Cl      1  UNL1       -0.0822
     19 C         147.1551  142.3345  155.2859 C.ar    1  UNL1        0.0809
     20 C         146.8925  143.4288  154.2941 C.ar    1  UNL1        0.0191
     21 C         147.9718  143.8540  153.3432 C.ar    1  UNL1        0.0028
     22 C         149.3138  143.1849  153.3841 C.ar    1  UNL1        0.0147
     23 C         149.5763  142.0907  154.3759 C.ar    1  UNL1        0.0593
     24 C         150.9182  141.4217  154.4168 C.3     1  UNL1        0.0521
     25 N         148.4970  141.6655  155.3268 N.ar    1  UNL1       -0.2497
     26 C         138.8846  137.7392  165.1389 C.3     1  UNL1        0.1108
     27 N         138.6578  137.6505  163.6589 N.pl3   1  UNL1       -0.3013
     28 H         137.8006  137.3133  163.3115 H       1  UNL1        0.1497
     29 C         139.3247  141.9232  160.4109 C.3     1  UNL1        0.1716
     30 C         139.1798  142.7632  161.6452 C.3     1  UNL1        0.2589
     31 O         137.9180  143.5394  161.8803 O.3     1  UNL1       -0.3275
     32 C         137.7732  144.3794  163.1146 C.3     1  UNL1        0.1628
     33 C         138.8900  144.4431  164.1138 C.3     1  UNL1        0.1110
     34 N         138.7452  145.2831  165.3481 N.3     1  UNL1       -0.3182
     35 C         140.1519  143.6668  163.8787 C.3     1  UNL1        0.1628
     36 O         140.2968  142.8268  162.6444 O.3     1  UNL1       -0.3275
     37 H         139.5928  145.2097  165.9107 H       1  UNL1        0.1190
     38 H         137.9470  144.9542  165.8913 H       1  UNL1        0.1190
@<TRIPOS>BOND
     1    26    27    1
     2    27     1    1
     3     1     2   ar
     4     2     3   ar
     5     3     4   ar
     6     4     5   ar
     7     5     6   ar
     8     6    12    1
     9    12    13   ar
    10    13    14   ar
    11    14    15   ar
    12    15    19    1
    13    19    20   ar
    14    20    21   ar
    15    21    22   ar
    16    22    23   ar
    17    23    24    1
    18    23    25   ar
    19    15    16   ar
    20    16    17   ar
    21    17    18    1
    22     6     7   ar
    23     7     8    2
    24     7     9   ar
    25     9    29    1
    26    30    29    1
    27    30    31    1
    28    31    32    1
    29    32    33    1
    30    33    34    1
    31    33    35    1
    32    35    36    1
    33     9    10   ar
    34    10    11   ar
    35    11     1   ar
    36    10     4   ar
    37    17    12   ar
    38    36    30    1
    39    25    19   ar
    40    27    28    1
    41    34    37    1
    42    34    38    1
@<TRIPOS>MOLECULE
*****
 38 42 0 0 0
SMALL
GASTEIGER

@<TRIPOS>ATOM
      1 C         143.6602  138.7127  156.5240 C.ar    1  UNL1        0.2183
      2 N         143.0634  137.5516  157.2626 N.ar    1  UNL1       -0.2122
      3 C         142.6016  137.7214  158.6796 C.ar    1  UNL1        0.1048
      4 C         142.7366  139.0523  159.3580 C.ar    1  UNL1        0.0537
      5 C         142.2748  139.2222  160.7750 C.ar    1  UNL1        0.0093
      6 C         142.4098  140.5531  161.4534 C.ar    1  UNL1        0.0572
      7 C         143.0065  141.7144  160.7148 C.ar    1  UNL1        0.2620
      8 O         143.1415  143.0453  161.3932 O.2     1  UNL1       -0.2669
      9 N         143.4683  141.5445  159.2978 N.ar    1  UNL1       -0.2753
     10 C         143.3333  140.2135  158.6194 C.ar    1  UNL1        0.1505
     11 N         143.7951  140.0437  157.2024 N.ar    1  UNL1       -0.1963
     12 C         141.9480  140.7229  162.8704 C.ar    1  UNL1        0.0152
     13 C         140.5390  141.1527  163.1537 C.ar    1  UNL1        0.0010
     14 C         140.0772  141.3226  164.5707 C.ar    1  UNL1        0.0016
     15 C         141.0244  141.0626  165.7044 C.ar    1  UNL1        0.0185
     16 C         142.4333  140.6328  165.4212 C.ar    1  UNL1        0.0129
     17 C         142.8951  140.4630  164.0041 C.ar    1  UNL1        0.0578
     18 CL        144.3039  140.0332  163.7209 Cl      1  UNL1       -0.0822
     19 C         140.5626  141.2324  167.1214 C.ar    1  UNL1        0.0809
     20 C         139.8817  140.0987  167.8293 C.ar    1  UNL1        0.0191
     21 C         139.4199  140.2685  169.2463 C.ar    1  UNL1        0.0028
     22 C         139.6390  141.5721  169.9555 C.ar    1  UNL1        0.0147
     23 C         140.3199  142.7057  169.2476 C.ar    1  UNL1        0.0593
     24 C         140.5390  144.0092  169.9567 C.3     1  UNL1        0.0521
     25 N         140.7817  142.5359  167.8306 N.ar    1  UNL1       -0.2497
     26 C         145.2152  139.4151  154.5648 C.3     1  UNL1        0.1108
     27 N         144.1220  138.5429  155.1070 N.pl3   1  UNL1       -0.3013
     28 H         143.7075  137.8589  154.5328 H       1  UNL1        0.1497
     29 C         144.0651  142.7057  158.5592 C.3     1  UNL1        0.1716
     30 C         143.1718  143.7347  157.9320 C.3     1  UNL1        0.2589
     31 O         142.9709  143.7477  156.4457 O.3     1  UNL1       -0.3275
     32 C         142.0777  144.7767  155.8185 C.3     1  UNL1        0.1628
     33 C         141.3854  145.7927  156.6778 C.3     1  UNL1        0.1110
     34 N         140.4922  146.8217  156.0506 N.3     1  UNL1       -0.3182
     35 C         141.5863  145.7798  158.1643 C.3     1  UNL1        0.1628
     36 O         142.4795  144.7507  158.7914 O.3     1  UNL1       -0.3275
     37 H         140.1078  147.4262  156.7768 H       1  UNL1        0.1190
     38 H         139.7304  146.3557  155.5578 H       1  UNL1        0.1190
@<TRIPOS>BOND
     1    26    27    1
     2    27     1    1
     3     1     2   ar
     4     2     3   ar
     5     3     4   ar
     6     4     5   ar
     7     5     6   ar
     8     6    12    1
     9    12    13   ar
    10    13    14   ar
    11    14    15   ar
    12    15    19    1
    13    19    20   ar
    14    20    21   ar
    15    21    22   ar
    16    22    23   ar
    17    23    24    1
    18    23    25   ar
    19    15    16   ar
    20    16    17   ar
    21    17    18    1
    22     6     7   ar
    23     7     8    2
    24     7     9   ar
    25     9    29    1
    26    30    29    1
    27    30    31    1
    28    31    32    1
    29    32    33    1
    30    33    34    1
    31    33    35    1
    32    35    36    1
    33     9    10   ar
    34    10    11   ar
    35    11     1   ar
    36    10     4   ar
    37    17    12   ar
    38    36    30    1
    39    25    19   ar
    40    27    28    1
    41    34    37    1
    42    34    38    1
@<TRIPOS>MOLECULE
*****
 38 42 0 0 0
SMALL
GASTEIGER

@<TRIPOS>ATOM
      1 C         139.0878  146.9477  156.3396 C.ar    1  UNL1        0.2183
      2 N         138.4562  146.1634  155.2280 N.ar    1  UNL1       -0.2122
      3 C         138.7433  144.6979  155.0868 C.ar    1  UNL1        0.1048
      4 C         139.6621  144.0168  156.0573 C.ar    1  UNL1        0.0537
      5 C         139.9493  142.5513  155.9161 C.ar    1  UNL1        0.0093
      6 C         140.8681  141.8702  156.8865 C.ar    1  UNL1        0.0572
      7 C         141.4997  142.6545  157.9983 C.ar    1  UNL1        0.2620
      8 O         142.4185  141.9734  158.9687 O.2     1  UNL1       -0.2669
      9 N         141.2126  144.1200  158.1395 N.ar    1  UNL1       -0.2753
     10 C         140.2937  144.8011  157.1689 C.ar    1  UNL1        0.1505
     11 N         140.0066  146.2666  157.3101 N.ar    1  UNL1       -0.1963
     12 C         141.1552  140.4047  156.7454 C.ar    1  UNL1        0.0152
     13 C         142.2318  139.9380  155.8108 C.ar    1  UNL1        0.0010
     14 C         142.5190  138.4725  155.6697 C.ar    1  UNL1        0.0016
     15 C         141.7296  137.4738  156.4630 C.ar    1  UNL1        0.0185
     16 C         140.6530  137.9405  157.3975 C.ar    1  UNL1        0.0129
     17 C         140.3659  139.4059  157.5386 C.ar    1  UNL1        0.0578
     18 CL        139.2894  139.8726  158.4731 Cl      1  UNL1       -0.0822
     19 C         142.0167  136.0083  156.3218 C.ar    1  UNL1        0.0809
     20 C         141.2508  135.1863  155.3279 C.ar    1  UNL1        0.0191
     21 C         141.5380  133.7208  155.1867 C.ar    1  UNL1        0.0028
     22 C         142.5910  133.0773  156.0395 C.ar    1  UNL1        0.0147
     23 C         143.3569  133.8993  157.0333 C.ar    1  UNL1        0.0593
     24 C         144.4099  133.2559  157.8860 C.3     1  UNL1        0.0521
     25 N         143.0697  135.3648  157.1745 N.ar    1  UNL1       -0.2497
     26 C         138.8575  149.3078  155.2782 C.3     1  UNL1        0.1108
     27 N         138.8006  148.4132  156.4808 N.pl3   1  UNL1       -0.3013
     28 H         138.5748  148.7878  157.3628 H       1  UNL1        0.1497
     29 C         141.8442  144.9043  159.2511 C.3     1  UNL1        0.1716
     30 C         141.1874  144.9577  160.5986 C.3     1  UNL1        0.2589
     31 O         141.7311  144.1378  161.7309 O.3     1  UNL1       -0.3275
     32 C         141.0743  144.1911  163.0784 C.3     1  UNL1        0.1628
     33 C         139.8739  145.0644  163.2937 C.3     1  UNL1        0.1110
     34 N         139.2172  145.1178  164.6412 N.3     1  UNL1       -0.3182
     35 C         139.3302  145.8844  162.1613 C.3     1  UNL1        0.1628
     36 O         139.9870  145.8311  160.8138 O.3     1  UNL1       -0.3275
     37 H         138.4227  145.7567  164.6072 H       1  UNL1        0.1190
     38 H         139.8891  145.4475  165.3341 H       1  UNL1        0.1190
@<TRIPOS>BOND
     1    26    27    1
     2    27     1    1
     3     1     2   ar
     4     2     3   ar
     5     3     4   ar
     6     4     5   ar
     7     5     6   ar
     8     6    12    1
     9    12    13   ar
    10    13    14   ar
    11    14    15   ar
    12    15    19    1
    13    19    20   ar
    14    20    21   ar
    15    21    22   ar
    16    22    23   ar
    17    23    24    1
    18    23    25   ar
    19    15    16   ar
    20    16    17   ar
    21    17    18    1
    22     6     7   ar
    23     7     8    2
    24     7     9   ar
    25     9    29    1
    26    30    29    1
    27    30    31    1
    28    31    32    1
    29    32    33    1
    30    33    34    1
    31    33    35    1
    32    35    36    1
    33     9    10   ar
    34    10    11   ar
    35    11     1   ar
    36    10     4   ar
    37    17    12   ar
    38    36    30    1
    39    25    19   ar
    40    27    28    1
    41    34    37    1
    42    34    38    1
@<TRIPOS>MOLECULE
*****
 38 42 0 0 0
SMALL
GASTEIGER

@<TRIPOS>ATOM
      1 C         138.1139  142.9250  161.7116 C.ar    1  UNL1        0.2183
      2 N         137.5338  141.5843  162.0522 N.ar    1  UNL1       -0.2122
      3 C         137.9628  140.3658  161.2898 C.ar    1  UNL1        0.1048
      4 C         138.9719  140.4880  160.1868 C.ar    1  UNL1        0.0537
      5 C         139.4010  139.2696  159.4244 C.ar    1  UNL1        0.0093
      6 C         140.4101  139.3918  158.3214 C.ar    1  UNL1        0.0572
      7 C         140.9903  140.7325  157.9807 C.ar    1  UNL1        0.2620
      8 O         141.9994  140.8547  156.8777 O.2     1  UNL1       -0.2669
      9 N         140.5612  141.9510  158.7431 N.ar    1  UNL1       -0.2753
     10 C         139.5520  141.8287  159.8462 C.ar    1  UNL1        0.1505
     11 N         139.1230  143.0472  160.6086 N.ar    1  UNL1       -0.1963
     12 C         140.8391  138.1733  157.5590 C.ar    1  UNL1        0.0152
     13 C         139.9869  137.6493  156.4413 C.ar    1  UNL1        0.0010
     14 C         140.4159  136.4308  155.6789 C.ar    1  UNL1        0.0016
     15 C         141.6972  135.7364  156.0342 C.ar    1  UNL1        0.0185
     16 C         142.5494  136.2604  157.1518 C.ar    1  UNL1        0.0129
     17 C         142.1204  137.4789  157.9142 C.ar    1  UNL1        0.0578
     18 CL        142.9725  138.0029  159.0318 Cl      1  UNL1       -0.0822
     19 C         142.1263  134.5179  155.2718 C.ar    1  UNL1        0.0809
     20 C         141.5825  134.2632  153.8971 C.ar    1  UNL1        0.0191
     21 C         142.0115  133.0448  153.1347 C.ar    1  UNL1        0.0028
     22 C         142.9843  132.0810  153.7469 C.ar    1  UNL1        0.0147
     23 C         143.5281  132.3356  155.1215 C.ar    1  UNL1        0.0593
     24 C         144.5009  131.3719  155.7336 C.3     1  UNL1        0.0521
     25 N         143.0990  133.5541  155.8839 N.ar    1  UNL1       -0.2497
     26 C         138.7126  145.1104  162.9826 C.3     1  UNL1        0.1108
     27 N         137.6848  144.1434  162.4740 N.pl3   1  UNL1       -0.3013
     28 H         136.7287  144.3085  162.6406 H       1  UNL1        0.1497
     29 C         141.1413  143.2916  158.4025 C.3     1  UNL1        0.1716
     30 C         140.3895  144.2276  157.5032 C.3     1  UNL1        0.2589
     31 O         140.5663  145.7101  157.6473 O.3     1  UNL1       -0.3275
     32 C         139.8145  146.6460  156.7480 C.3     1  UNL1        0.1628
     33 C         138.8859  146.0994  155.7045 C.3     1  UNL1        0.1110
     34 N         138.1341  147.0354  154.8051 N.3     1  UNL1       -0.3182
     35 C         138.7091  144.6168  155.5603 C.3     1  UNL1        0.1628
     36 O         139.4609  143.6809  156.4596 O.3     1  UNL1       -0.3275
     37 H         137.5546  146.4964  154.1616 H       1  UNL1        0.1190
     38 H         138.7959  147.6014  154.2740 H       1  UNL1        0.1190
@<TRIPOS>BOND
     1    26    27    1
     2    27     1    1
     3     1     2   ar
     4     2     3   ar
     5     3     4   ar
     6     4     5   ar
     7     5     6   ar
     8     6    12    1
     9    12    13   ar
    10    13    14   ar
    11    14    15   ar
    12    15    19    1
    13    19    20   ar
    14    20    21   ar
    15    21    22   ar
    16    22    23   ar
    17    23    24    1
    18    23    25   ar
    19    15    16   ar
    20    16    17   ar
    21    17    18    1
    22     6     7   ar
    23     7     8    2
    24     7     9   ar
    25     9    29    1
    26    30    29    1
    27    30    31    1
    28    31    32    1
    29    32    33    1
    30    33    34    1
    31    33    35    1
    32    35    36    1
    33     9    10   ar
    34    10    11   ar
    35    11     1   ar
    36    10     4   ar
    37    17    12   ar
    38    36    30    1
    39    25    19   ar
    40    27    28    1
    41    34    37    1
    42    34    38    1
@<TRIPOS>MOLECULE
*****
 38 42 0 0 0
SMALL
GASTEIGER

@<TRIPOS>ATOM
      1 C         138.9037  139.7613  156.1872 C.ar    1  UNL1        0.2183
      2 N         137.6464  140.2503  156.8428 N.ar    1  UNL1       -0.2122
      3 C         137.6157  140.4864  158.3238 C.ar    1  UNL1        0.1048
      4 C         138.8423  140.2336  159.1491 C.ar    1  UNL1        0.0537
      5 C         138.8116  140.4697  160.6301 C.ar    1  UNL1        0.0093
      6 C         140.0383  140.2169  161.4555 C.ar    1  UNL1        0.0572
      7 C         141.2958  139.7278  160.7999 C.ar    1  UNL1        0.2620
      8 O         142.5224  139.4749  161.6253 O.2     1  UNL1       -0.2669
      9 N         141.3264  139.4916  159.3189 N.ar    1  UNL1       -0.2753
     10 C         140.0997  139.7445  158.4936 C.ar    1  UNL1        0.1505
     11 N         140.1304  139.5084  157.0126 N.ar    1  UNL1       -0.1963
     12 C         140.0076  140.4530  162.9365 C.ar    1  UNL1        0.0152
     13 C         140.4953  141.7555  163.4985 C.ar    1  UNL1        0.0010
     14 C         140.4646  141.9916  164.9795 C.ar    1  UNL1        0.0016
     15 C         139.9462  140.9253  165.8984 C.ar    1  UNL1        0.0185
     16 C         139.4585  139.6230  165.3364 C.ar    1  UNL1        0.0129
     17 C         139.4892  139.3868  163.8554 C.ar    1  UNL1        0.0578
     18 CL        139.0015  138.0845  163.2933 Cl      1  UNL1       -0.0822
     19 C         139.9155  141.1615  167.3794 C.ar    1  UNL1        0.0809
     20 C         139.5095  140.0548  168.3071 C.ar    1  UNL1        0.0191
     21 C         139.4788  140.2910  169.7881 C.ar    1  UNL1        0.0028
     22 C         139.8541  141.6338  170.3414 C.ar    1  UNL1        0.0147
     23 C         140.2600  142.7404  169.4137 C.ar    1  UNL1        0.0593
     24 C         140.6353  144.0831  169.9670 C.3     1  UNL1        0.0521
     25 N         140.2907  142.5042  167.9327 N.ar    1  UNL1       -0.2497
     26 C         138.8846  140.6880  153.7601 C.3     1  UNL1        0.1108
     27 N         138.9344  139.5251  154.7062 N.pl3   1  UNL1       -0.3013
     28 H         138.9873  138.6068  154.3552 H       1  UNL1        0.1497
     29 C         142.5838  139.0026  158.6634 C.3     1  UNL1        0.1716
     30 C         143.5856  139.9861  158.1351 C.3     1  UNL1        0.2589
     31 O         144.3546  139.6754  156.8852 O.3     1  UNL1       -0.3275
     32 C         145.3564  140.6589  156.3569 C.3     1  UNL1        0.1628
     33 C         145.5892  141.9532  157.0785 C.3     1  UNL1        0.1110
     34 N         146.5910  142.9367  156.5502 N.3     1  UNL1       -0.3182
     35 C         144.8202  142.2640  158.3284 C.3     1  UNL1        0.1628
     36 O         143.8184  141.2804  158.8567 O.3     1  UNL1       -0.3275
     37 H         146.6196  143.7537  157.1601 H       1  UNL1        0.1190
     38 H         146.3217  143.2241  155.6093 H       1  UNL1        0.1190
@<TRIPOS>BOND
     1    26    27    1
     2    27     1    1
     3     1     2   ar
     4     2     3   ar
     5     3     4   ar
     6     4     5   ar
     7     5     6   ar
     8     6    12    1
     9    12    13   ar
    10    13    14   ar
    11    14    15   ar
    12    15    19    1
    13    19    20   ar
    14    20    21   ar
    15    21    22   ar
    16    22    23   ar
    17    23    24    1
    18    23    25   ar
    19    15    16   ar
    20    16    17   ar
    21    17    18    1
    22     6     7   ar
    23     7     8    2
    24     7     9   ar
    25     9    29    1
    26    30    29    1
    27    30    31    1
    28    31    32    1
    29    32    33    1
    30    33    34    1
    31    33    35    1
    32    35    36    1
    33     9    10   ar
    34    10    11   ar
    35    11     1   ar
    36    10     4   ar
    37    17    12   ar
    38    36    30    1
    39    25    19   ar
    40    27    28    1
    41    34    37    1
    42    34    38    1
@<TRIPOS>MOLECULE
*****
 38 42 0 0 0
SMALL
GASTEIGER

@<TRIPOS>ATOM
      1 C         139.6088  144.8160  155.7407 C.ar    1  UNL1        0.2183
      2 N         140.4158  145.7547  156.5877 N.ar    1  UNL1       -0.2122
      3 C         140.5711  145.4942  158.0567 C.ar    1  UNL1        0.1048
      4 C         139.9193  144.2950  158.6788 C.ar    1  UNL1        0.0537
      5 C         140.0746  144.0345  160.1478 C.ar    1  UNL1        0.0093
      6 C         139.4228  142.8353  160.7699 C.ar    1  UNL1        0.0572
      7 C         138.6156  141.8965  159.9229 C.ar    1  UNL1        0.2620
      8 O         137.9638  140.6973  160.5450 O.2     1  UNL1       -0.2669
      9 N         138.4604  142.1570  158.4539 N.ar    1  UNL1       -0.2753
     10 C         139.1122  143.3563  157.8318 C.ar    1  UNL1        0.1505
     11 N         138.9570  143.6168  156.3628 N.ar    1  UNL1       -0.1963
     12 C         139.5781  142.5748  162.2389 C.ar    1  UNL1        0.0152
     13 C         140.6101  141.5996  162.7227 C.ar    1  UNL1        0.0010
     14 C         140.7654  141.3391  164.1917 C.ar    1  UNL1        0.0016
     15 C         139.8886  142.0538  165.1769 C.ar    1  UNL1        0.0185
     16 C         138.8566  143.0290  164.6931 C.ar    1  UNL1        0.0129
     17 C         138.7014  143.2895  163.2241 C.ar    1  UNL1        0.0578
     18 CL        137.6694  144.2646  162.7403 Cl      1  UNL1       -0.0822
     19 C         140.0439  141.7934  166.6460 C.ar    1  UNL1        0.0809
     20 C         139.9164  140.3965  167.1776 C.ar    1  UNL1        0.0191
     21 C         140.0717  140.1360  168.6466 C.ar    1  UNL1        0.0028
     22 C         140.3544  141.2724  169.5840 C.ar    1  UNL1        0.0147
     23 C         140.4819  142.6692  169.0524 C.ar    1  UNL1        0.0593
     24 C         140.7646  143.8055  169.9898 C.3     1  UNL1        0.0521
     25 N         140.3266  142.9297  167.5834 N.ar    1  UNL1       -0.2497
     26 C         139.1947  143.9370  153.3312 C.3     1  UNL1        0.1108
     27 N         139.4535  145.0765  154.2717 N.pl3   1  UNL1       -0.3013
     28 H         139.5214  145.9953  153.9248 H       1  UNL1        0.1497
     29 C         137.6533  141.2183  157.6069 C.3     1  UNL1        0.1716
     30 C         138.2730  139.9543  157.0890 C.3     1  UNL1        0.2589
     31 O         139.1765  139.1455  157.9718 O.3     1  UNL1       -0.3275
     32 C         139.7963  137.8815  157.4539 C.3     1  UNL1        0.1628
     33 C         139.5125  137.4263  156.0531 C.3     1  UNL1        0.1110
     34 N         140.1323  136.1623  155.5352 N.3     1  UNL1       -0.3182
     35 C         138.6090  138.2351  155.1702 C.3     1  UNL1        0.1628
     36 O         137.9892  139.4991  155.6881 O.3     1  UNL1       -0.3275
     37 H         139.8333  136.0067  154.5725 H       1  UNL1        0.1190
     38 H         139.8365  135.3765  156.1143 H       1  UNL1        0.1190
@<TRIPOS>BOND
     1    26    27    1
     2    27     1    1
     3     1     2   ar
     4     2     3   ar
     5     3     4   ar
     6     4     5   ar
     7     5     6   ar
     8     6    12    1
     9    12    13   ar
    10    13    14   ar
    11    14    15   ar
    12    15    19    1
    13    19    20   ar
    14    20    21   ar
    15    21    22   ar
    16    22    23   ar
    17    23    24    1
    18    23    25   ar
    19    15    16   ar
    20    16    17   ar
    21    17    18    1
    22     6     7   ar
    23     7     8    2
    24     7     9   ar
    25     9    29    1
    26    30    29    1
    27    30    31    1
    28    31    32    1
    29    32    33    1
    30    33    34    1
    31    33    35    1
    32    35    36    1
    33     9    10   ar
    34    10    11   ar
    35    11     1   ar
    36    10     4   ar
    37    17    12   ar
    38    36    30    1
    39    25    19   ar
    40    27    28    1
    41    34    37    1
    42    34    38    1
@<TRIPOS>MOLECULE
*****
 38 42 0 0 0
SMALL
GASTEIGER

@<TRIPOS>ATOM
      1 C         138.5882  139.1862  166.3817 C.ar    1  UNL1        0.2183
      2 N         137.7497  139.5459  165.1912 N.ar    1  UNL1       -0.2122
      3 C         138.4075  139.9501  163.9051 C.ar    1  UNL1        0.1048
      4 C         139.9037  139.9947  163.8096 C.ar    1  UNL1        0.0537
      5 C         140.5615  140.3990  162.5236 C.ar    1  UNL1        0.0093
      6 C         142.0578  140.4435  162.4281 C.ar    1  UNL1        0.0572
      7 C         142.8964  140.0839  163.6187 C.ar    1  UNL1        0.2620
      8 O         144.3926  140.1284  163.5232 O.2     1  UNL1       -0.2669
      9 N         142.2386  139.6796  164.9048 N.ar    1  UNL1       -0.2753
     10 C         140.7423  139.6350  165.0002 C.ar    1  UNL1        0.1505
     11 N         140.0845  139.2308  166.2863 N.ar    1  UNL1       -0.1963
     12 C         142.7155  140.8478  161.1420 C.ar    1  UNL1        0.0152
     13 C         143.0612  139.8083  160.1173 C.ar    1  UNL1        0.0010
     14 C         143.7190  140.2125  158.8313 C.ar    1  UNL1        0.0016
     15 C         144.0310  141.6563  158.5699 C.ar    1  UNL1        0.0185
     16 C         143.6853  142.6957  159.5946 C.ar    1  UNL1        0.0129
     17 C         143.0275  142.2915  160.8807 C.ar    1  UNL1        0.0578
     18 CL        142.6818  143.3309  161.9053 Cl      1  UNL1       -0.0822
     19 C         144.6888  142.0605  157.2839 C.ar    1  UNL1        0.0809
     20 C         143.8704  142.6603  156.1790 C.ar    1  UNL1        0.0191
     21 C         144.5281  143.0645  154.8930 C.ar    1  UNL1        0.0028
     22 C         146.0043  142.8690  154.7118 C.ar    1  UNL1        0.0147
     23 C         146.8226  142.2693  155.8165 C.ar    1  UNL1        0.0593
     24 C         148.2987  142.0738  155.6353 C.3     1  UNL1        0.0521
     25 N         146.1649  141.8651  157.1026 N.ar    1  UNL1       -0.2497
     26 C         136.9044  137.6879  167.6739 C.3     1  UNL1        0.1108
     27 N         137.9305  138.7820  167.6678 N.pl3   1  UNL1       -0.3013
     28 H         138.1723  139.2347  168.5079 H       1  UNL1        0.1497
     29 C         143.0771  139.3199  166.0953 C.3     1  UNL1        0.1716
     30 C         142.9449  140.1007  167.3693 C.3     1  UNL1        0.2589
     31 O         142.8367  141.5961  167.3246 O.3     1  UNL1       -0.3275
     32 C         142.7045  142.3769  168.5986 C.3     1  UNL1        0.1628
     33 C         142.6804  141.6623  169.9171 C.3     1  UNL1        0.1110
     34 N         142.5481  142.4430  171.1911 N.3     1  UNL1       -0.3182
     35 C         142.7885  140.1668  169.9618 C.3     1  UNL1        0.1628
     36 O         142.9207  139.3860  168.6879 O.3     1  UNL1       -0.3275
     37 H         142.5492  141.8019  171.9844 H       1  UNL1        0.1190
     38 H         141.6734  142.9676  171.1791 H       1  UNL1        0.1190
@<TRIPOS>BOND
     1    26    27    1
     2    27     1    1
     3     1     2   ar
     4     2     3   ar
     5     3     4   ar
     6     4     5   ar
     7     5     6   ar
     8     6    12    1
     9    12    13   ar
    10    13    14   ar
    11    14    15   ar
    12    15    19    1
    13    19    20   ar
    14    20    21   ar
    15    21    22   ar
    16    22    23   ar
    17    23    24    1
    18    23    25   ar
    19    15    16   ar
    20    16    17   ar
    21    17    18    1
    22     6     7   ar
    23     7     8    2
    24     7     9   ar
    25     9    29    1
    26    30    29    1
    27    30    31    1
    28    31    32    1
    29    32    33    1
    30    33    34    1
    31    33    35    1
    32    35    36    1
    33     9    10   ar
    34    10    11   ar
    35    11     1   ar
    36    10     4   ar
    37    17    12   ar
    38    36    30    1
    39    25    19   ar
    40    27    28    1
    41    34    37    1
    42    34    38    1
