@<TRIPOS>MOLECULE
*****
 30 32 0 0 0
SMALL
GASTEIGER

@<TRIPOS>ATOM
      1 O         140.6538  138.3993  163.5579 O.2     1  UNL1       -0.2522
      2 C         140.4864  139.8893  163.5147 C.2     1  UNL1        0.3079
      3 N         140.3395  140.6649  164.7902 N.am    1  UNL1       -0.2844
      4 N         140.4661  140.6037  162.1959 N.am    1  UNL1       -0.2448
      5 H         140.2297  141.6428  164.7618 H       1  UNL1        0.1513
      6 C         140.2988  142.0938  162.1527 C.ar    1  UNL1        0.0553
      7 C         138.9343  142.6998  162.2969 C.ar    1  UNL1        0.0158
      8 C         138.7670  144.1898  162.2536 C.ar    1  UNL1        0.0127
      9 C         139.9641  145.0738  162.0661 C.ar    1  UNL1        0.0578
     10 CL        139.7968  146.5638  162.0229 Cl      1  UNL1       -0.0822
     11 C         141.3287  144.4678  161.9219 C.ar    1  UNL1        0.0127
     12 C         141.4960  142.9778  161.9652 C.ar    1  UNL1        0.0158
     13 C         140.6131  139.8282  160.9205 C.3     1  UNL1        0.0840
     14 C         139.3970  139.2956  160.2221 C.3     1  UNL1        0.0376
     15 C         139.5440  138.5201  158.9467 C.3     1  UNL1        0.0739
     16 N         140.9070  138.2770  158.3695 N.3     1  UNL1       -0.2705
     17 C         142.1230  138.8095  159.0677 C.3     1  UNL1        0.0739
     18 C         141.9761  139.5851  160.3433 C.3     1  UNL1        0.0376
     19 C         141.0539  137.5015  157.0940 C.3     1  UNL1        0.1042
     20 C         139.9580  137.5271  156.0701 C.3     1  UNL1        0.1544
     21 O         138.8073  136.5711  156.1789 O.3     1  UNL1       -0.3805
     22 H         139.1273  135.6643  156.0516 H       1  UNL1        0.2105
     23 C         140.3598  139.9504  166.1090 C.3     1  UNL1        0.1177
     24 C         140.1867  140.7228  167.3832 C.ar    1  UNL1       -0.0024
     25 C         140.7088  142.1251  167.4871 C.ar    1  UNL1       -0.0003
     26 C         140.5356  142.8973  168.7612 C.ar    1  UNL1        0.0294
     27 C         139.8403  142.2673  169.9315 C.ar    1  UNL1        0.1401
     28 F         139.6672  143.0396  171.2058 F       1  UNL1       -0.2042
     29 C         139.3182  140.8650  169.8277 C.ar    1  UNL1        0.0294
     30 C         139.4914  140.0927  168.5535 C.ar    1  UNL1       -0.0003
@<TRIPOS>BOND
     1     1     2    2
     2     2     3   am
     3     3    23    1
     4    23    24    1
     5    24    25   ar
     6    25    26   ar
     7    26    27   ar
     8    27    28    1
     9    27    29   ar
    10    29    30   ar
    11     2     4   am
    12     4     6    1
    13     6     7   ar
    14     7     8   ar
    15     8     9   ar
    16     9    10    1
    17     9    11   ar
    18    11    12   ar
    19     4    13    1
    20    13    14    1
    21    14    15    1
    22    15    16    1
    23    16    19    1
    24    19    20    1
    25    20    21    1
    26    16    17    1
    27    17    18    1
    28    30    24   ar
    29    12     6   ar
    30    18    13    1
    31     3     5    1
    32    21    22    1
@<TRIPOS>MOLECULE
*****
 30 32 0 0 0
SMALL
GASTEIGER

@<TRIPOS>ATOM
      1 O         142.3538  141.6123  159.4013 O.2     1  UNL1       -0.2522
      2 C         141.6122  142.0353  160.6346 C.2     1  UNL1        0.3079
      3 N         141.7838  141.2691  161.9128 N.am    1  UNL1       -0.2844
      4 N         140.6991  143.2245  160.5899 N.am    1  UNL1       -0.2448
      5 H         141.2971  141.5467  162.7223 H       1  UNL1        0.1513
      6 C         139.9575  143.6475  161.8232 C.ar    1  UNL1        0.0553
      7 C         140.6427  144.4887  162.8589 C.ar    1  UNL1        0.0158
      8 C         139.9011  144.9117  164.0922 C.ar    1  UNL1        0.0127
      9 C         138.4743  144.4935  164.2898 C.ar    1  UNL1        0.0578
     10 CL        137.7326  144.9165  165.5232 Cl      1  UNL1       -0.0822
     11 C         137.7890  143.6523  163.2542 C.ar    1  UNL1        0.0127
     12 C         138.5306  143.2293  162.0208 C.ar    1  UNL1        0.0158
     13 C         140.5275  143.9906  159.3118 C.3     1  UNL1        0.0840
     14 C         139.5203  143.5391  158.2960 C.3     1  UNL1        0.0376
     15 C         139.3488  144.3052  157.0180 C.3     1  UNL1        0.0739
     16 N         140.1844  145.5229  156.7555 N.3     1  UNL1       -0.2705
     17 C         141.1916  145.9745  157.7712 C.3     1  UNL1        0.0739
     18 C         141.3632  145.2083  159.0494 C.3     1  UNL1        0.0376
     19 C         140.0129  146.2891  155.4774 C.3     1  UNL1        0.1042
     20 C         139.0958  147.4752  155.4313 C.3     1  UNL1        0.1544
     21 O         138.7169  148.1801  156.7000 O.3     1  UNL1       -0.3805
     22 H         138.1864  147.5862  157.2538 H       1  UNL1        0.2105
     23 C         142.6969  140.0800  161.9575 C.3     1  UNL1        0.1177
     24 C         143.0637  139.4651  163.2757 C.ar    1  UNL1       -0.0024
     25 C         142.0262  138.7378  164.0786 C.ar    1  UNL1       -0.0003
     26 C         142.3929  138.1230  165.3967 C.ar    1  UNL1        0.0294
     27 C         143.7971  138.2355  165.9119 C.ar    1  UNL1        0.1401
     28 F         144.1639  137.6206  167.2301 F       1  UNL1       -0.2042
     29 C         144.8346  138.9628  165.1091 C.ar    1  UNL1        0.0294
     30 C         144.4679  139.5776  163.7910 C.ar    1  UNL1       -0.0003
@<TRIPOS>BOND
     1     1     2    2
     2     2     3   am
     3     3    23    1
     4    23    24    1
     5    24    25   ar
     6    25    26   ar
     7    26    27   ar
     8    27    28    1
     9    27    29   ar
    10    29    30   ar
    11     2     4   am
    12     4     6    1
    13     6     7   ar
    14     7     8   ar
    15     8     9   ar
    16     9    10    1
    17     9    11   ar
    18    11    12   ar
    19     4    13    1
    20    13    14    1
    21    14    15    1
    22    15    16    1
    23    16    19    1
    24    19    20    1
    25    20    21    1
    26    16    17    1
    27    17    18    1
    28    30    24   ar
    29    12     6   ar
    30    18    13    1
    31     3     5    1
    32    21    22    1
@<TRIPOS>MOLECULE
*****
 30 32 0 0 0
SMALL
GASTEIGER

@<TRIPOS>ATOM
      1 O         141.6976  145.0355  164.1104 O.2     1  UNL1       -0.2522
      2 C         140.9928  143.8500  163.5207 C.2     1  UNL1        0.3079
      3 N         140.5615  143.8720  162.0841 N.am    1  UNL1       -0.2844
      4 N         140.7192  142.6424  164.3674 N.am    1  UNL1       -0.2448
      5 H         140.0989  143.0939  161.6970 H       1  UNL1        0.1513
      6 C         140.0144  141.4569  163.7776 C.ar    1  UNL1        0.0553
      7 C         140.8083  140.3319  163.1827 C.ar    1  UNL1        0.0158
      8 C         140.1035  139.1464  162.5930 C.ar    1  UNL1        0.0127
      9 C         138.6047  139.0859  162.5981 C.ar    1  UNL1        0.0578
     10 CL        137.8999  137.9004  162.0084 Cl      1  UNL1       -0.0822
     11 C         137.8108  140.2109  163.1930 C.ar    1  UNL1        0.0127
     12 C         138.5156  141.3964  163.7828 C.ar    1  UNL1        0.0158
     13 C         141.1504  142.6204  165.8039 C.3     1  UNL1        0.0840
     14 C         140.1678  142.9540  166.8871 C.3     1  UNL1        0.0376
     15 C         140.5990  142.9320  168.3236 C.3     1  UNL1        0.0739
     16 N         142.0128  142.5764  168.6769 N.3     1  UNL1       -0.2705
     17 C         142.9953  142.2429  167.5938 C.3     1  UNL1        0.0739
     18 C         142.5641  142.2649  166.1572 C.3     1  UNL1        0.0376
     19 C         142.4440  142.5544  170.1134 C.3     1  UNL1        0.1042
     20 C         141.7643  141.6373  171.0866 C.3     1  UNL1        0.1544
     21 O         140.6388  142.1471  171.9369 O.3     1  UNL1       -0.3805
     22 H         140.9763  142.8160  172.5529 H       1  UNL1        0.2105
     23 C         140.8351  145.0795  161.2374 C.3     1  UNL1        0.1177
     24 C         141.3168  144.9128  159.8266 C.ar    1  UNL1       -0.0024
     25 C         142.3503  143.8745  159.5047 C.ar    1  UNL1       -0.0003
     26 C         142.8319  143.7078  158.0940 C.ar    1  UNL1        0.0294
     27 C         142.2801  144.5795  157.0051 C.ar    1  UNL1        0.1401
     28 F         142.7617  144.4128  155.5943 F       1  UNL1       -0.2042
     29 C         141.2466  145.6178  157.3270 C.ar    1  UNL1        0.0294
     30 C         140.7649  145.7845  158.7377 C.ar    1  UNL1       -0.0003
@<TRIPOS>BOND
     1     1     2    2
     2     2     3   am
     3     3    23    1
     4    23    24    1
     5    24    25   ar
     6    25    26   ar
     7    26    27   ar
     8    27    28    1
     9    27    29   ar
    10    29    30   ar
    11     2     4   am
    12     4     6    1
    13     6     7   ar
    14     7     8   ar
    15     8     9   ar
    16     9    10    1
    17     9    11   ar
    18    11    12   ar
    19     4    13    1
    20    13    14    1
    21    14    15    1
    22    15    16    1
    23    16    19    1
    24    19    20    1
    25    20    21    1
    26    16    17    1
    27    17    18    1
    28    30    24   ar
    29    12     6   ar
    30    18    13    1
    31     3     5    1
    32    21    22    1
@<TRIPOS>MOLECULE
*****
 30 32 0 0 0
SMALL
GASTEIGER

@<TRIPOS>ATOM
      1 O         143.2201  139.0129  164.3811 O.2     1  UNL1       -0.2522
      2 C         142.7341  140.2760  163.7342 C.2     1  UNL1        0.3079
      3 N         143.0745  140.5642  162.3020 N.am    1  UNL1       -0.2844
      4 N         141.9077  141.2508  164.5195 N.am    1  UNL1       -0.2448
      5 H         142.7555  141.3932  161.8775 H       1  UNL1        0.1513
      6 C         141.4217  142.5139  163.8727 C.ar    1  UNL1        0.0553
      7 C         142.1911  143.7897  164.0466 C.ar    1  UNL1        0.0158
      8 C         141.7051  145.0528  163.3998 C.ar    1  UNL1        0.0127
      9 C         140.4497  145.0401  162.5790 C.ar    1  UNL1        0.0578
     10 CL        139.9637  146.3032  161.9322 Cl      1  UNL1       -0.0822
     11 C         139.6803  143.7643  162.4051 C.ar    1  UNL1        0.0127
     12 C         140.1663  142.5012  163.0519 C.ar    1  UNL1        0.0158
     13 C         141.5673  140.9626  165.9516 C.3     1  UNL1        0.0840
     14 C         140.2471  140.3405  166.2982 C.3     1  UNL1        0.0376
     15 C         139.9067  140.0523  167.7303 C.3     1  UNL1        0.0739
     16 N         140.8865  140.3861  168.8159 N.3     1  UNL1       -0.2705
     17 C         142.2067  141.0081  168.4694 C.3     1  UNL1        0.0739
     18 C         142.5471  141.2964  167.0372 C.3     1  UNL1        0.0376
     19 C         140.5461  140.0978  170.2481 C.3     1  UNL1        0.1042
     20 C         140.9884  141.0399  171.3284 C.3     1  UNL1        0.1544
     21 O         142.2069  140.7258  172.1448 O.3     1  UNL1       -0.3805
     22 H         142.0429  139.9325  172.6784 H       1  UNL1        0.2105
     23 C         143.9009  139.5893  161.5168 C.3     1  UNL1        0.1177
     24 C         143.5660  139.3071  160.0821 C.ar    1  UNL1       -0.0024
     25 C         142.9673  137.9866  159.6975 C.ar    1  UNL1       -0.0003
     26 C         142.6324  137.7044  158.2629 C.ar    1  UNL1        0.0294
     27 C         142.8962  138.7426  157.2129 C.ar    1  UNL1        0.1401
     28 F         142.5613  138.4603  155.7782 F       1  UNL1       -0.2042
     29 C         143.4948  140.0631  157.5975 C.ar    1  UNL1        0.0294
     30 C         143.8297  140.3453  159.0321 C.ar    1  UNL1       -0.0003
@<TRIPOS>BOND
     1     1     2    2
     2     2     3   am
     3     3    23    1
     4    23    24    1
     5    24    25   ar
     6    25    26   ar
     7    26    27   ar
     8    27    28    1
     9    27    29   ar
    10    29    30   ar
    11     2     4   am
    12     4     6    1
    13     6     7   ar
    14     7     8   ar
    15     8     9   ar
    16     9    10    1
    17     9    11   ar
    18    11    12   ar
    19     4    13    1
    20    13    14    1
    21    14    15    1
    22    15    16    1
    23    16    19    1
    24    19    20    1
    25    20    21    1
    26    16    17    1
    27    17    18    1
    28    30    24   ar
    29    12     6   ar
    30    18    13    1
    31     3     5    1
    32    21    22    1
@<TRIPOS>MOLECULE
*****
 30 32 0 0 0
SMALL
GASTEIGER

@<TRIPOS>ATOM
      1 O         139.9132  138.3118  163.5880 O.2     1  UNL1       -0.2522
      2 C         139.8262  139.7193  163.0767 C.2     1  UNL1        0.3079
      3 N         139.5137  139.9744  161.6319 N.am    1  UNL1       -0.2844
      4 N         140.0517  140.8717  164.0100 N.am    1  UNL1       -0.2448
      5 H         139.4566  140.8982  161.2963 H       1  UNL1        0.1513
      6 C         139.9647  142.2791  163.4987 C.ar    1  UNL1        0.0553
      7 C         138.6530  143.0062  163.5231 C.ar    1  UNL1        0.0158
      8 C         138.5660  144.4137  163.0118 C.ar    1  UNL1        0.0127
      9 C         139.7907  145.0941  162.4761 C.ar    1  UNL1        0.0578
     10 CL        139.7038  146.5015  161.9648 Cl      1  UNL1       -0.0822
     11 C         141.1025  144.3670  162.4517 C.ar    1  UNL1        0.0127
     12 C         141.1895  142.9595  162.9630 C.ar    1  UNL1        0.0158
     13 C         140.3642  140.6165  165.4547 C.3     1  UNL1        0.0840
     14 C         141.7847  140.6633  165.9345 C.3     1  UNL1        0.0376
     15 C         142.0972  140.4081  167.3792 C.3     1  UNL1        0.0739
     16 N         140.9893  140.1062  168.3442 N.3     1  UNL1       -0.2705
     17 C         139.5688  140.0594  167.8645 C.3     1  UNL1        0.0739
     18 C         139.2563  140.3146  166.4198 C.3     1  UNL1        0.0376
     19 C         141.3018  139.8510  169.7889 C.3     1  UNL1        0.1042
     20 C         141.8680  140.9495  170.6391 C.3     1  UNL1        0.1544
     21 O         142.2943  140.6631  172.0484 O.3     1  UNL1       -0.3805
     22 H         141.5172  140.4303  172.5803 H       1  UNL1        0.2105
     23 C         139.2882  138.8221  160.6985 C.3     1  UNL1        0.1177
     24 C         140.3276  138.4710  159.6755 C.ar    1  UNL1       -0.0024
     25 C         141.7601  138.3055  160.0881 C.ar    1  UNL1       -0.0003
     26 C         142.7995  137.9544  159.0652 C.ar    1  UNL1        0.0294
     27 C         142.4062  137.7688  157.6296 C.ar    1  UNL1        0.1401
     28 F         143.4456  137.4177  156.6066 F       1  UNL1       -0.2042
     29 C         140.9737  137.9343  157.2170 C.ar    1  UNL1        0.0294
     30 C         139.9343  138.2854  158.2399 C.ar    1  UNL1       -0.0003
@<TRIPOS>BOND
     1     1     2    2
     2     2     3   am
     3     3    23    1
     4    23    24    1
     5    24    25   ar
     6    25    26   ar
     7    26    27   ar
     8    27    28    1
     9    27    29   ar
    10    29    30   ar
    11     2     4   am
    12     4     6    1
    13     6     7   ar
    14     7     8   ar
    15     8     9   ar
    16     9    10    1
    17     9    11   ar
    18    11    12   ar
    19     4    13    1
    20    13    14    1
    21    14    15    1
    22    15    16    1
    23    16    19    1
    24    19    20    1
    25    20    21    1
    26    16    17    1
    27    17    18    1
    28    30    24   ar
    29    12     6   ar
    30    18    13    1
    31     3     5    1
    32    21    22    1
@<TRIPOS>MOLECULE
*****
 30 32 0 0 0
SMALL
GASTEIGER

@<TRIPOS>ATOM
      1 O         142.0508  141.0002  158.0035 O.2     1  UNL1       -0.2522
      2 C         141.4627  140.5142  159.2950 C.2     1  UNL1        0.3079
      3 N         141.2612  141.4696  160.4338 N.am    1  UNL1       -0.2844
      4 N         141.0760  139.0730  159.4477 N.am    1  UNL1       -0.2448
      5 H         140.8752  141.1507  161.2815 H       1  UNL1        0.1513
      6 C         140.4879  138.5871  160.7392 C.ar    1  UNL1        0.0553
      7 C         141.3829  138.0448  161.8138 C.ar    1  UNL1        0.0158
      8 C         140.7948  137.5588  163.1053 C.ar    1  UNL1        0.0127
      9 C         139.3116  137.6153  163.3223 C.ar    1  UNL1        0.0578
     10 CL        138.7235  137.1293  164.6138 Cl      1  UNL1       -0.0822
     11 C         138.4166  138.1576  162.2477 C.ar    1  UNL1        0.0127
     12 C         139.0047  138.6435  160.9562 C.ar    1  UNL1        0.0158
     13 C         141.2774  138.1178  158.3090 C.3     1  UNL1        0.0840
     14 C         142.5877  137.4048  158.1509 C.3     1  UNL1        0.0376
     15 C         142.7891  136.4495  157.0121 C.3     1  UNL1        0.0739
     16 N         141.6804  136.2072  156.0314 N.3     1  UNL1       -0.2705
     17 C         140.3701  136.9201  156.1894 C.3     1  UNL1        0.0739
     18 C         140.1686  137.8754  157.3282 C.3     1  UNL1        0.0376
     19 C         141.8818  135.2519  154.8926 C.3     1  UNL1        0.1042
     20 C         141.4791  133.8144  155.0394 C.3     1  UNL1        0.1544
     21 O         141.9339  133.0261  156.2317 O.3     1  UNL1       -0.3805
     22 H         142.8979  132.9224  156.2022 H       1  UNL1        0.2105
     23 C         141.6479  142.9108  160.2810 C.3     1  UNL1        0.1177
     24 C         142.2855  143.6416  161.4254 C.ar    1  UNL1       -0.0024
     25 C         141.4502  144.5078  162.3208 C.ar    1  UNL1       -0.0003
     26 C         142.0878  145.2386  163.4650 C.ar    1  UNL1        0.0294
     27 C         143.5608  145.1032  163.7139 C.ar    1  UNL1        0.1401
     28 F         144.1984  145.8340  164.8582 F       1  UNL1       -0.2042
     29 C         144.3962  144.2370  162.8185 C.ar    1  UNL1        0.0294
     30 C         143.7585  143.5062  161.6742 C.ar    1  UNL1       -0.0003
@<TRIPOS>BOND
     1     1     2    2
     2     2     3   am
     3     3    23    1
     4    23    24    1
     5    24    25   ar
     6    25    26   ar
     7    26    27   ar
     8    27    28    1
     9    27    29   ar
    10    29    30   ar
    11     2     4   am
    12     4     6    1
    13     6     7   ar
    14     7     8   ar
    15     8     9   ar
    16     9    10    1
    17     9    11   ar
    18    11    12   ar
    19     4    13    1
    20    13    14    1
    21    14    15    1
    22    15    16    1
    23    16    19    1
    24    19    20    1
    25    20    21    1
    26    16    17    1
    27    17    18    1
    28    30    24   ar
    29    12     6   ar
    30    18    13    1
    31     3     5    1
    32    21    22    1
@<TRIPOS>MOLECULE
*****
 30 32 0 0 0
SMALL
GASTEIGER

@<TRIPOS>ATOM
      1 O         140.9449  144.8038  164.2572 O.2     1  UNL1       -0.2522
      2 C         141.4649  143.6005  163.5281 C.2     1  UNL1        0.3079
      3 N         141.4762  143.5794  162.0282 N.am    1  UNL1       -0.2844
      4 N         141.9734  142.4184  164.2987 N.am    1  UNL1       -0.2448
      5 H         141.8175  142.7896  161.5496 H       1  UNL1        0.1513
      6 C         142.4933  141.2150  163.5695 C.ar    1  UNL1        0.0553
      7 C         143.9131  141.1862  163.0865 C.ar    1  UNL1        0.0158
      8 C         144.4330  139.9829  162.3573 C.ar    1  UNL1        0.0127
      9 C         143.5331  138.8084  162.1112 C.ar    1  UNL1        0.0578
     10 CL        144.0530  137.6050  161.3820 Cl      1  UNL1       -0.0822
     11 C         142.1133  138.8371  162.5942 C.ar    1  UNL1        0.0127
     12 C         141.5934  140.0405  163.3234 C.ar    1  UNL1        0.0158
     13 C         141.9620  142.4395  165.7985 C.3     1  UNL1        0.0840
     14 C         143.2518  142.3549  166.5596 C.3     1  UNL1        0.0376
     15 C         143.2404  142.3760  168.0594 C.3     1  UNL1        0.0739
     16 N         141.9392  142.4819  168.7981 N.3     1  UNL1       -0.2705
     17 C         140.6494  142.5665  168.0370 C.3     1  UNL1        0.0739
     18 C         140.6608  142.5454  166.5372 C.3     1  UNL1        0.0376
     19 C         141.9278  142.5030  170.2979 C.3     1  UNL1        0.1042
     20 C         141.3988  141.3247  171.0606 C.3     1  UNL1        0.1544
     21 O         142.2532  140.6576  172.0974 O.3     1  UNL1       -0.3805
     22 H         143.0180  140.2431  171.6683 H       1  UNL1        0.2105
     23 C         140.9677  144.7615  161.2576 C.3     1  UNL1        0.1177
     24 C         141.2106  144.8546  159.7803 C.ar    1  UNL1       -0.0024
     25 C         142.3255  144.0717  159.1527 C.ar    1  UNL1       -0.0003
     26 C         142.5682  144.1648  157.6754 C.ar    1  UNL1        0.0294
     27 C         141.6961  145.0409  156.8258 C.ar    1  UNL1        0.1401
     28 F         141.9389  145.1340  155.3484 F       1  UNL1       -0.2042
     29 C         140.5812  145.8238  157.4534 C.ar    1  UNL1        0.0294
     30 C         140.3384  145.7307  158.9306 C.ar    1  UNL1       -0.0003
@<TRIPOS>BOND
     1     1     2    2
     2     2     3   am
     3     3    23    1
     4    23    24    1
     5    24    25   ar
     6    25    26   ar
     7    26    27   ar
     8    27    28    1
     9    27    29   ar
    10    29    30   ar
    11     2     4   am
    12     4     6    1
    13     6     7   ar
    14     7     8   ar
    15     8     9   ar
    16     9    10    1
    17     9    11   ar
    18    11    12   ar
    19     4    13    1
    20    13    14    1
    21    14    15    1
    22    15    16    1
    23    16    19    1
    24    19    20    1
    25    20    21    1
    26    16    17    1
    27    17    18    1
    28    30    24   ar
    29    12     6   ar
    30    18    13    1
    31     3     5    1
    32    21    22    1
@<TRIPOS>MOLECULE
*****
 30 32 0 0 0
SMALL
GASTEIGER

@<TRIPOS>ATOM
      1 O         138.3646  142.4012  159.4049 O.2     1  UNL1       -0.2522
      2 C         139.3018  142.8016  160.5056 C.2     1  UNL1        0.3079
      3 N         139.1129  142.2520  161.8885 N.am    1  UNL1       -0.2844
      4 N         140.4277  143.7516  160.2234 N.am    1  UNL1       -0.2448
      5 H         139.7280  142.5148  162.6108 H       1  UNL1        0.1513
      6 C         141.3649  144.1521  161.3240 C.ar    1  UNL1        0.0553
      7 C         140.9006  145.0867  162.4014 C.ar    1  UNL1        0.0158
      8 C         141.8378  145.4872  163.5020 C.ar    1  UNL1        0.0127
      9 C         143.2392  144.9529  163.5252 C.ar    1  UNL1        0.0578
     10 CL        144.1763  145.3534  164.6259 Cl      1  UNL1       -0.0822
     11 C         143.7034  144.0183  162.4478 C.ar    1  UNL1        0.0127
     12 C         142.7663  143.6178  161.3472 C.ar    1  UNL1        0.0158
     13 C         140.6165  144.3012  158.8405 C.3     1  UNL1        0.0840
     14 C         141.2946  143.4724  157.7901 C.3     1  UNL1        0.0376
     15 C         141.4834  144.0219  156.4073 C.3     1  UNL1        0.0739
     16 N         140.9941  145.4003  156.0747 N.3     1  UNL1       -0.2705
     17 C         140.3159  146.2291  157.1250 C.3     1  UNL1        0.0739
     18 C         140.1271  145.6796  158.5080 C.3     1  UNL1        0.0376
     19 C         141.1828  145.9499  154.6919 C.3     1  UNL1        0.1042
     20 C         140.3735  147.1277  154.2359 C.3     1  UNL1        0.1544
     21 O         140.3897  147.5353  152.7925 O.3     1  UNL1       -0.3805
     22 H         141.2772  147.8461  152.5543 H       1  UNL1        0.2105
     23 C         137.9870  141.3020  162.1707 C.3     1  UNL1        0.1177
     24 C         138.1877  140.1639  163.1271 C.ar    1  UNL1       -0.0024
     25 C         138.0667  140.3953  164.6041 C.ar    1  UNL1       -0.0003
     26 C         138.2674  139.2573  165.5605 C.ar    1  UNL1        0.0294
     27 C         138.5892  137.8879  165.0397 C.ar    1  UNL1        0.1401
     28 F         138.7900  136.7499  165.9962 F       1  UNL1       -0.2042
     29 C         138.7103  137.6565  163.5627 C.ar    1  UNL1        0.0294
     30 C         138.5096  138.7945  162.6064 C.ar    1  UNL1       -0.0003
@<TRIPOS>BOND
     1     1     2    2
     2     2     3   am
     3     3    23    1
     4    23    24    1
     5    24    25   ar
     6    25    26   ar
     7    26    27   ar
     8    27    28    1
     9    27    29   ar
    10    29    30   ar
    11     2     4   am
    12     4     6    1
    13     6     7   ar
    14     7     8   ar
    15     8     9   ar
    16     9    10    1
    17     9    11   ar
    18    11    12   ar
    19     4    13    1
    20    13    14    1
    21    14    15    1
    22    15    16    1
    23    16    19    1
    24    19    20    1
    25    20    21    1
    26    16    17    1
    27    17    18    1
    28    30    24   ar
    29    12     6   ar
    30    18    13    1
    31     3     5    1
    32    21    22    1
@<TRIPOS>MOLECULE
*****
 30 32 0 0 0
SMALL
GASTEIGER

@<TRIPOS>ATOM
      1 O         141.6079  138.4759  164.0691 O.2     1  UNL1       -0.2522
      2 C         141.2668  139.9289  163.9193 C.2     1  UNL1        0.3079
      3 N         140.9353  140.7502  165.1299 N.am    1  UNL1       -0.2844
      4 N         141.2570  140.5606  162.5588 N.am    1  UNL1       -0.2448
      5 H         140.7114  141.7039  165.0316 H       1  UNL1        0.1513
      6 C         140.9159  142.0135  162.4089 C.ar    1  UNL1        0.0553
      7 C         139.4847  142.4362  162.2578 C.ar    1  UNL1        0.0158
      8 C         139.1435  143.8891  162.1079 C.ar    1  UNL1        0.0127
      9 C         140.2336  144.9195  162.1092 C.ar    1  UNL1        0.0578
     10 CL        139.8924  146.3725  161.9593 Cl      1  UNL1       -0.0822
     11 C         141.6648  144.4969  162.2604 C.ar    1  UNL1        0.0127
     12 C         142.0060  143.0439  162.4102 C.ar    1  UNL1        0.0158
     13 C         141.5885  139.7392  161.3482 C.3     1  UNL1        0.0840
     14 C         142.9939  139.2644  161.1258 C.3     1  UNL1        0.0376
     15 C         143.3253  138.4430  159.9153 C.3     1  UNL1        0.0739
     16 N         142.2514  138.0965  158.9270 N.3     1  UNL1       -0.2705
     17 C         140.8460  138.5714  159.1494 C.3     1  UNL1        0.0739
     18 C         140.5145  139.3927  160.3600 C.3     1  UNL1        0.0376
     19 C         142.5828  137.2752  157.7164 C.3     1  UNL1        0.1042
     20 C         143.2296  137.9202  156.5266 C.3     1  UNL1        0.1544
     21 O         143.9099  139.2492  156.6713 O.3     1  UNL1       -0.3805
     22 H         143.2510  139.9280  156.8857 H       1  UNL1        0.2105
     23 C         140.9451  140.1186  166.4904 C.3     1  UNL1        0.1177
     24 C         140.5307  140.9168  167.6909 C.ar    1  UNL1       -0.0024
     25 C         139.7178  140.2735  168.7751 C.ar    1  UNL1       -0.0003
     26 C         139.3035  141.0717  169.9755 C.ar    1  UNL1        0.0294
     27 C         139.7019  142.5132  170.0918 C.ar    1  UNL1        0.1401
     28 F         139.2875  143.3114  171.2923 F       1  UNL1       -0.2042
     29 C         140.5147  143.1564  169.0076 C.ar    1  UNL1        0.0294
     30 C         140.9291  142.3582  167.8072 C.ar    1  UNL1       -0.0003
@<TRIPOS>BOND
     1     1     2    2
     2     2     3   am
     3     3    23    1
     4    23    24    1
     5    24    25   ar
     6    25    26   ar
     7    26    27   ar
     8    27    28    1
     9    27    29   ar
    10    29    30   ar
    11     2     4   am
    12     4     6    1
    13     6     7   ar
    14     7     8   ar
    15     8     9   ar
    16     9    10    1
    17     9    11   ar
    18    11    12   ar
    19     4    13    1
    20    13    14    1
    21    14    15    1
    22    15    16    1
    23    16    19    1
    24    19    20    1
    25    20    21    1
    26    16    17    1
    27    17    18    1
    28    30    24   ar
    29    12     6   ar
    30    18    13    1
    31     3     5    1
    32    21    22    1
