@<TRIPOS>MOLECULE
*****
 37 40 0 0 0
SMALL
GASTEIGER

@<TRIPOS>ATOM
      1 C         138.4430  142.2693  157.9776 C.ar    1  UNL1        0.0690
      2 C         138.8948  142.0847  159.3959 C.ar    1  UNL1        0.0275
      3 C         139.7384  143.2669  159.7713 C.ar    1  UNL1        0.1142
      4 N         139.8079  144.1821  158.5849 N.ar    1  UNL1       -0.3223
      5 C         139.0073  143.5656  157.4763 C.ar    1  UNL1        0.0717
      6 C         138.8956  144.2642  156.1536 C.3     1  UNL1        0.1857
      7 O         139.5845  145.5793  155.9396 O.3     1  UNL1       -0.3454
      8 C         140.3851  146.1958  157.0481 C.3     1  UNL1        0.1671
      9 C         140.4968  145.4972  158.3708 C.3     1  UNL1        0.1379
     10 C         140.3968  143.4940  161.0998 C.2     1  UNL1        0.2651
     11 O         141.8926  143.4723  161.2090 O.2     1  UNL1       -0.2683
     12 N         139.5593  143.7429  162.3192 N.am    1  UNL1       -0.2687
     13 C         138.0609  143.7932  162.3643 C.3     1  UNL1        0.0941
     14 C         137.6488  144.0665  163.7804 C.3     1  UNL1        0.0235
     15 C         138.8925  144.1851  164.6105 C.3     1  UNL1        0.0303
     16 C         140.0733  143.9851  163.7074 C.3     1  UNL1        0.1708
     17 C         141.5150  144.0209  164.1200 C.3     1  UNL1        0.4138
     18 F         142.9567  144.0569  164.5326 F       1  UNL1       -0.1682
     19 F         141.5315  145.5091  163.9329 F       1  UNL1       -0.1682
     20 F         141.4985  142.5327  164.3071 F       1  UNL1       -0.1682
     21 N         136.3854  141.8412  156.4501 N.am    1  UNL1       -0.2986
     22 C         137.5787  141.3237  157.1974 C.2     1  UNL1        0.2472
     23 O         137.9075  139.8606  157.1644 O.2     1  UNL1       -0.2701
     24 H         136.1695  142.8015  156.4718 H       1  UNL1        0.1500
     25 C         135.5210  140.8956  155.6700 C.3     1  UNL1        0.0958
     26 C         134.1578  140.5317  156.1793 C.ar    1  UNL1        0.0147
     27 C         132.9365  141.1298  155.5463 C.ar    1  UNL1        0.0003
     28 C         131.5733  140.7659  156.0556 C.ar    1  UNL1        0.0228
     29 C         131.4315  139.8040  157.1978 C.ar    1  UNL1        0.1526
     30 N         132.6529  139.2060  157.8307 N.ar    1  UNL1       -0.2401
     31 C         134.0161  139.5698  157.3214 C.ar    1  UNL1        0.0960
     32 C         130.0683  139.4402  157.7071 C.3     1  UNL1        0.4348
     33 F         128.7052  139.0763  158.2164 F       1  UNL1       -0.1644
     34 F         129.4523  140.4361  156.7698 F       1  UNL1       -0.1644
     35 F         130.6844  138.4442  158.6444 F       1  UNL1       -0.1644
     36 C         136.1398  138.8267  154.2255 C.3     1  UNL1        0.0021
     37 C         136.0199  140.3139  154.3805 C.3     1  UNL1        0.0242
@<TRIPOS>BOND
     1    36    37    1
     2    25    37    1
     3    25    21    1
     4    21    22   am
     5    22    23    2
     6    22     1    1
     7     1     2   ar
     8     2     3   ar
     9     3    10    1
    10    10    11    2
    11    10    12   am
    12    12    13    1
    13    13    14    1
    14    14    15    1
    15    15    16    1
    16    16    17    1
    17    17    18    1
    18    17    19    1
    19    17    20    1
    20     3     4   ar
    21     4     5   ar
    22     5     6    1
    23     6     7    1
    24     7     8    1
    25     8     9    1
    26    25    26    1
    27    26    27   ar
    28    27    28   ar
    29    28    29   ar
    30    29    32    1
    31    32    33    1
    32    32    34    1
    33    32    35    1
    34    29    30   ar
    35    30    31   ar
    36     5     1   ar
    37    31    26   ar
    38    16    12    1
    39     9     4    1
    40    21    24    1
@<TRIPOS>MOLECULE
*****
 37 40 0 0 0
SMALL
GASTEIGER

@<TRIPOS>ATOM
      1 C         139.3611  140.9797  163.2178 C.ar    1  UNL1        0.0690
      2 C         139.2807  141.3669  164.6647 C.ar    1  UNL1        0.0275
      3 C         139.8017  140.2211  165.4807 C.ar    1  UNL1        0.1142
      4 N         140.2041  139.1259  164.5381 N.ar    1  UNL1       -0.3223
      5 C         139.9318  139.5947  163.1395 C.ar    1  UNL1        0.0717
      6 C         140.2387  138.6999  161.9755 C.3     1  UNL1        0.1857
      7 O         140.8178  137.3363  162.2100 O.3     1  UNL1       -0.3454
      8 C         141.0901  136.8674  163.6086 C.3     1  UNL1        0.1671
      9 C         140.7832  137.7622  164.7726 C.3     1  UNL1        0.1379
     10 C         139.9025  140.1782  166.9767 C.2     1  UNL1        0.2651
     11 O         138.8806  139.4254  167.7760 O.2     1  UNL1       -0.2683
     12 N         141.0254  140.8880  167.6734 N.am    1  UNL1       -0.2687
     13 C         142.1157  141.6769  167.0108 C.3     1  UNL1        0.0941
     14 C         143.0192  142.2100  168.0829 C.3     1  UNL1        0.0235
     15 C         142.4875  141.7506  169.4081 C.3     1  UNL1        0.0303
     16 C         141.2552  140.9336  169.1550 C.3     1  UNL1        0.1708
     17 C         140.4025  140.2773  170.2000 C.3     1  UNL1        0.4138
     18 F         139.5497  139.6210  171.2451 F       1  UNL1       -0.1682
     19 F         141.3311  139.0995  170.2180 F       1  UNL1       -0.1682
     20 F         139.4738  141.4552  170.1820 F       1  UNL1       -0.1682
     21 N         139.8607  141.9905  160.8770 N.am    1  UNL1       -0.2986
     22 C         138.9441  141.8285  162.0535 C.2     1  UNL1        0.2472
     23 O         137.6107  142.5153  162.0654 O.2     1  UNL1       -0.2701
     24 H         140.7359  141.5398  160.8691 H       1  UNL1        0.1500
     25 C         139.4437  142.8393  159.7127 C.3     1  UNL1        0.0958
     26 C         138.5292  142.2778  158.6646 C.ar    1  UNL1        0.0147
     27 C         138.1200  143.1235  157.4953 C.ar    1  UNL1        0.0003
     28 C         137.2055  142.5619  156.4472 C.ar    1  UNL1        0.0228
     29 C         136.7003  141.1548  156.5685 C.ar    1  UNL1        0.1526
     30 N         137.1096  140.3092  157.7379 N.ar    1  UNL1       -0.2401
     31 C         138.0240  140.8707  158.7859 C.ar    1  UNL1        0.0960
     32 C         135.7859  140.5933  155.5204 C.3     1  UNL1        0.4348
     33 F         134.8714  140.0318  154.4723 F       1  UNL1       -0.1644
     34 F         136.8140  140.8839  154.4676 F       1  UNL1       -0.1644
     35 F         134.7577  140.3027  156.5732 F       1  UNL1       -0.1644
     36 C         140.4886  144.9535  160.8028 C.3     1  UNL1        0.0021
     37 C         139.9411  144.2496  159.5966 C.3     1  UNL1        0.0242
@<TRIPOS>BOND
     1    36    37    1
     2    25    37    1
     3    25    21    1
     4    21    22   am
     5    22    23    2
     6    22     1    1
     7     1     2   ar
     8     2     3   ar
     9     3    10    1
    10    10    11    2
    11    10    12   am
    12    12    13    1
    13    13    14    1
    14    14    15    1
    15    15    16    1
    16    16    17    1
    17    17    18    1
    18    17    19    1
    19    17    20    1
    20     3     4   ar
    21     4     5   ar
    22     5     6    1
    23     6     7    1
    24     7     8    1
    25     8     9    1
    26    25    26    1
    27    26    27   ar
    28    27    28   ar
    29    28    29   ar
    30    29    32    1
    31    32    33    1
    32    32    34    1
    33    32    35    1
    34    29    30   ar
    35    30    31   ar
    36     5     1   ar
    37    31    26   ar
    38    16    12    1
    39     9     4    1
    40    21    24    1
@<TRIPOS>MOLECULE
*****
 37 40 0 0 0
SMALL
GASTEIGER

@<TRIPOS>ATOM
      1 C         140.9343  139.1319  159.5342 C.ar    1  UNL1        0.0690
      2 C         141.8775  140.2591  159.8337 C.ar    1  UNL1        0.0275
      3 C         141.5550  140.7820  161.2022 C.ar    1  UNL1        0.1142
      4 N         140.4125  139.9780  161.7483 N.ar    1  UNL1       -0.3223
      5 C         140.0289  138.9581  160.7175 C.ar    1  UNL1        0.0717
      6 C         138.9047  138.0030  160.9894 C.3     1  UNL1        0.1857
      7 O         138.1642  138.0678  162.2922 O.3     1  UNL1       -0.3454
      8 C         138.5479  139.0876  163.3231 C.3     1  UNL1        0.1671
      9 C         139.6720  140.0427  163.0512 C.3     1  UNL1        0.1379
     10 C         142.2526  141.9108  161.9016 C.2     1  UNL1        0.2651
     11 O         141.7295  143.3106  161.7727 O.2     1  UNL1       -0.2683
     12 N         143.4733  141.6397  162.7302 N.am    1  UNL1       -0.2687
     13 C         144.1093  140.2992  162.9507 C.3     1  UNL1        0.0941
     14 C         145.3013  140.4925  163.8404 C.3     1  UNL1        0.0235
     15 C         145.4021  141.9524  164.1698 C.3     1  UNL1        0.0303
     16 C         144.2723  142.6614  163.4836 C.3     1  UNL1        0.1708
     17 C         143.9909  144.1336  163.5409 C.3     1  UNL1        0.4138
     18 F         143.7094  145.6059  163.5980 F       1  UNL1       -0.1682
     19 F         144.8170  144.3395  162.3060 F       1  UNL1       -0.1682
     20 F         143.1646  143.9277  164.7758 F       1  UNL1       -0.1682
     21 N         142.1757  138.0293  157.5358 N.am    1  UNL1       -0.2986
     22 C         140.9021  138.3208  158.2728 C.2     1  UNL1        0.2472
     23 O         139.5964  137.8011  157.7484 O.2     1  UNL1       -0.2701
     24 H         143.0327  138.3704  157.8800 H       1  UNL1        0.1500
     25 C         142.1435  137.2182  156.2744 C.3     1  UNL1        0.0958
     26 C         142.3067  135.7284  156.3363 C.ar    1  UNL1        0.0147
     27 C         141.5556  134.8512  155.3790 C.ar    1  UNL1        0.0003
     28 C         141.7188  133.3614  155.4409 C.ar    1  UNL1        0.0228
     29 C         142.6330  132.7488  156.4602 C.ar    1  UNL1        0.1526
     30 N         143.3841  133.6260  157.4175 N.ar    1  UNL1       -0.2401
     31 C         143.2209  135.1158  157.3555 C.ar    1  UNL1        0.0960
     32 C         142.7962  131.2590  156.5221 C.3     1  UNL1        0.4348
     33 F         142.9594  129.7692  156.5840 F       1  UNL1       -0.1644
     34 F         141.5163  131.0871  155.7591 F       1  UNL1       -0.1644
     35 F         144.0762  131.4309  157.2851 F       1  UNL1       -0.1644
     36 C         140.5773  138.3354  154.5284 C.3     1  UNL1        0.0021
     37 C         141.9481  137.8970  154.9511 C.3     1  UNL1        0.0242
@<TRIPOS>BOND
     1    36    37    1
     2    25    37    1
     3    25    21    1
     4    21    22   am
     5    22    23    2
     6    22     1    1
     7     1     2   ar
     8     2     3   ar
     9     3    10    1
    10    10    11    2
    11    10    12   am
    12    12    13    1
    13    13    14    1
    14    14    15    1
    15    15    16    1
    16    16    17    1
    17    17    18    1
    18    17    19    1
    19    17    20    1
    20     3     4   ar
    21     4     5   ar
    22     5     6    1
    23     6     7    1
    24     7     8    1
    25     8     9    1
    26    25    26    1
    27    26    27   ar
    28    27    28   ar
    29    28    29   ar
    30    29    32    1
    31    32    33    1
    32    32    34    1
    33    32    35    1
    34    29    30   ar
    35    30    31   ar
    36     5     1   ar
    37    31    26   ar
    38    16    12    1
    39     9     4    1
    40    21    24    1
@<TRIPOS>MOLECULE
*****
 37 40 0 0 0
SMALL
GASTEIGER

@<TRIPOS>ATOM
      1 C         140.1284  141.6275  162.5823 C.ar    1  UNL1        0.0690
      2 C         140.6358  142.2582  163.8451 C.ar    1  UNL1        0.0275
      3 C         141.1443  141.1650  164.7374 C.ar    1  UNL1        0.1142
      4 N         140.9512  139.8585  164.0260 N.ar    1  UNL1       -0.3223
      5 C         140.3234  140.1444  162.6941 C.ar    1  UNL1        0.0717
      6 C         140.0103  139.0173  161.7552 C.3     1  UNL1        0.1857
      7 O         140.3250  137.6044  162.1482 O.3     1  UNL1       -0.3454
      8 C         140.9529  137.3185  163.4801 C.3     1  UNL1        0.1671
      9 C         141.2660  138.4456  164.4191 C.3     1  UNL1        0.1379
     10 C         141.7412  141.3462  166.1015 C.2     1  UNL1        0.2651
     11 O         143.1186  141.9218  166.2471 O.2     1  UNL1       -0.2683
     12 N         140.9604  140.9519  167.3202 N.am    1  UNL1       -0.2687
     13 C         139.5794  140.3667  167.3313 C.3     1  UNL1        0.0941
     14 C         139.1891  140.1267  168.7596 C.3     1  UNL1        0.0235
     15 C         140.3289  140.5637  169.6313 C.3     1  UNL1        0.0303
     16 C         141.4237  141.0737  168.7417 C.3     1  UNL1        0.1708
     17 C         142.7490  141.6111  169.1940 C.3     1  UNL1        0.4138
     18 F         144.0744  142.1485  169.6464 F       1  UNL1       -0.1682
     19 F         143.2966  140.2157  169.2476 F       1  UNL1       -0.1682
     20 F         142.2015  143.0066  169.1405 F       1  UNL1       -0.1682
     21 N         140.2015  142.2943  160.0722 N.am    1  UNL1       -0.2986
     22 C         139.5310  142.3525  161.4129 C.2     1  UNL1        0.2472
     23 O         138.2633  143.1356  161.5840 O.2     1  UNL1       -0.2701
     24 H         141.0336  141.7803  159.9599 H       1  UNL1        0.1500
     25 C         139.6040  143.0193  158.9029 C.3     1  UNL1        0.0958
     26 C         138.5294  142.3665  158.0851 C.ar    1  UNL1        0.0147
     27 C         137.9648  143.0722  156.8878 C.ar    1  UNL1        0.0003
     28 C         136.8902  142.4193  156.0700 C.ar    1  UNL1        0.0228
     29 C         136.3800  141.0607  156.4494 C.ar    1  UNL1        0.1526
     30 N         136.9446  140.3550  157.6466 N.ar    1  UNL1       -0.2401
     31 C         138.0192  141.0079  158.4645 C.ar    1  UNL1        0.0960
     32 C         135.3053  140.4078  155.6316 C.3     1  UNL1        0.4348
     33 F         134.2307  139.7549  154.8138 F       1  UNL1       -0.1644
     34 F         134.4554  140.2687  156.8597 F       1  UNL1       -0.1644
     35 F         136.1553  140.5470  154.4036 F       1  UNL1       -0.1644
     36 C         141.1539  145.0512  159.3711 C.3     1  UNL1        0.0021
     37 C         140.0813  144.3972  158.5513 C.3     1  UNL1        0.0242
@<TRIPOS>BOND
     1    36    37    1
     2    25    37    1
     3    25    21    1
     4    21    22   am
     5    22    23    2
     6    22     1    1
     7     1     2   ar
     8     2     3   ar
     9     3    10    1
    10    10    11    2
    11    10    12   am
    12    12    13    1
    13    13    14    1
    14    14    15    1
    15    15    16    1
    16    16    17    1
    17    17    18    1
    18    17    19    1
    19    17    20    1
    20     3     4   ar
    21     4     5   ar
    22     5     6    1
    23     6     7    1
    24     7     8    1
    25     8     9    1
    26    25    26    1
    27    26    27   ar
    28    27    28   ar
    29    28    29   ar
    30    29    32    1
    31    32    33    1
    32    32    34    1
    33    32    35    1
    34    29    30   ar
    35    30    31   ar
    36     5     1   ar
    37    31    26   ar
    38    16    12    1
    39     9     4    1
    40    21    24    1
@<TRIPOS>MOLECULE
*****
 37 40 0 0 0
SMALL
GASTEIGER

@<TRIPOS>ATOM
      1 C         140.9188  139.3190  159.7078 C.ar    1  UNL1        0.0690
      2 C         139.9849  140.4048  160.1537 C.ar    1  UNL1        0.0275
      3 C         140.4520  140.8975  161.4913 C.ar    1  UNL1        0.1142
      4 N         141.6745  140.1162  161.8720 N.ar    1  UNL1       -0.3223
      5 C         141.9630  139.1406  160.7697 C.ar    1  UNL1        0.0717
      6 C         143.1393  138.2159  160.8754 C.3     1  UNL1        0.1857
      7 O         144.0271  138.2667  162.0833 O.3     1  UNL1       -0.3454
      8 C         143.7386  139.2423  163.1856 C.3     1  UNL1        0.1671
      9 C         142.5623  140.1670  163.0799 C.3     1  UNL1        0.1379
     10 C         139.8094  141.9812  162.3052 C.2     1  UNL1        0.2651
     11 O         139.0276  141.6310  163.5365 O.2     1  UNL1       -0.2683
     12 N         139.9486  143.4153  161.8879 N.am    1  UNL1       -0.2687
     13 C         140.6957  143.9156  160.6873 C.3     1  UNL1        0.0941
     14 C         140.5740  145.4103  160.6553 C.3     1  UNL1        0.0235
     15 C         139.7516  145.8338  161.8361 C.3     1  UNL1        0.0303
     16 C         139.3651  144.6008  162.5979 C.3     1  UNL1        0.1708
     17 C         138.5399  144.5604  163.8499 C.3     1  UNL1        0.4138
     18 F         137.7147  144.5200  165.1019 F       1  UNL1       -0.1682
     19 F         137.3040  144.3426  163.0283 F       1  UNL1       -0.1682
     20 F         139.7759  144.7782  164.6716 F       1  UNL1       -0.1682
     21 N         142.0476  138.3460  157.5795 N.am    1  UNL1       -0.2986
     22 C         140.8249  138.5471  158.4251 C.2     1  UNL1        0.2472
     23 O         139.5086  137.9762  157.9878 O.2     1  UNL1       -0.2701
     24 H         142.9116  138.7207  157.8664 H       1  UNL1        0.1500
     25 C         141.9537  137.5741  156.2968 C.3     1  UNL1        0.0958
     26 C         142.1143  136.0827  156.3055 C.ar    1  UNL1        0.0147
     27 C         141.3137  135.2367  155.3603 C.ar    1  UNL1        0.0003
     28 C         141.4742  133.7454  155.3690 C.ar    1  UNL1        0.0228
     29 C         142.4353  133.1000  156.3228 C.ar    1  UNL1        0.1526
     30 N         143.2359  133.9461  157.2680 N.ar    1  UNL1       -0.2401
     31 C         143.0754  135.4374  157.2593 C.ar    1  UNL1        0.0960
     32 C         142.5959  131.6087  156.3315 C.3     1  UNL1        0.4348
     33 F         142.7564  130.1174  156.3402 F       1  UNL1       -0.1644
     34 F         141.3983  131.4746  155.4384 F       1  UNL1       -0.1644
     35 F         143.7935  131.7428  157.2246 F       1  UNL1       -0.1644
     36 C         140.3116  138.7462  154.6600 C.3     1  UNL1        0.0021
     37 C         141.6993  138.2936  155.0055 C.3     1  UNL1        0.0242
@<TRIPOS>BOND
     1    36    37    1
     2    25    37    1
     3    25    21    1
     4    21    22   am
     5    22    23    2
     6    22     1    1
     7     1     2   ar
     8     2     3   ar
     9     3    10    1
    10    10    11    2
    11    10    12   am
    12    12    13    1
    13    13    14    1
    14    14    15    1
    15    15    16    1
    16    16    17    1
    17    17    18    1
    18    17    19    1
    19    17    20    1
    20     3     4   ar
    21     4     5   ar
    22     5     6    1
    23     6     7    1
    24     7     8    1
    25     8     9    1
    26    25    26    1
    27    26    27   ar
    28    27    28   ar
    29    28    29   ar
    30    29    32    1
    31    32    33    1
    32    32    34    1
    33    32    35    1
    34    29    30   ar
    35    30    31   ar
    36     5     1   ar
    37    31    26   ar
    38    16    12    1
    39     9     4    1
    40    21    24    1
@<TRIPOS>MOLECULE
*****
 37 40 0 0 0
SMALL
GASTEIGER

@<TRIPOS>ATOM
      1 C         142.9306  138.8085  159.4234 C.ar    1  UNL1        0.0690
      2 C         142.4159  137.5046  158.8895 C.ar    1  UNL1        0.0275
      3 C         142.6515  137.4850  157.4082 C.ar    1  UNL1        0.1142
      4 N         143.3118  138.7767  157.0267 N.ar    1  UNL1       -0.3223
      5 C         143.4843  139.5946  158.2721 C.ar    1  UNL1        0.0717
      6 C         144.1233  140.9496  158.1970 C.3     1  UNL1        0.1857
      7 O         144.5897  141.4867  156.8765 O.3     1  UNL1       -0.3454
      8 C         144.4172  140.6687  155.6310 C.3     1  UNL1        0.1671
      9 C         143.7782  139.3137  155.7061 C.3     1  UNL1        0.1379
     10 C         142.2902  136.3695  156.4727 C.2     1  UNL1        0.2651
     11 O         141.3496  136.6223  155.3320 O.2     1  UNL1       -0.2683
     12 N         142.8696  135.0012  156.6779 N.am    1  UNL1       -0.2687
     13 C         143.8183  134.5999  157.7683 C.3     1  UNL1        0.0941
     14 C         144.1371  133.1447  157.5930 C.3     1  UNL1        0.0235
     15 C         143.3855  132.6466  156.3943 C.3     1  UNL1        0.0303
     16 C         142.6021  133.7940  155.8287 C.3     1  UNL1        0.1708
     17 C         141.7082  133.7431  154.6253 C.3     1  UNL1        0.4138
     18 F         140.8141  133.6922  153.4219 F       1  UNL1       -0.1682
     19 F         140.6354  133.0954  155.4496 F       1  UNL1       -0.1682
     20 F         142.7810  134.3909  153.8010 F       1  UNL1       -0.1682
     21 N         143.4462  138.3546  161.9291 N.am    1  UNL1       -0.2986
     22 C         142.8975  139.2488  160.8569 C.2     1  UNL1        0.2472
     23 O         142.3158  140.5833  161.2184 O.2     1  UNL1       -0.2701
     24 H         143.8280  137.4787  161.6919 H       1  UNL1        0.1500
     25 C         143.4131  138.7950  163.3626 C.3     1  UNL1        0.0958
     26 C         142.1359  138.7083  164.1445 C.ar    1  UNL1        0.0147
     27 C         141.9009  139.6329  165.3021 C.ar    1  UNL1        0.0003
     28 C         140.6238  139.5461  166.0840 C.ar    1  UNL1        0.0228
     29 C         139.5817  138.5348  165.7084 C.ar    1  UNL1        0.1526
     30 N         139.8167  137.6101  164.5509 N.ar    1  UNL1       -0.2401
     31 C         141.0938  137.6969  163.7690 C.ar    1  UNL1        0.0960
     32 C         138.3046  138.4480  166.4903 C.3     1  UNL1        0.4348
     33 F         137.0274  138.3613  167.2722 F       1  UNL1       -0.1644
     34 F         138.1038  137.0425  166.0065 F       1  UNL1       -0.1644
     35 F         138.5053  139.8536  166.9741 F       1  UNL1       -0.1644
     36 C         145.1730  140.6838  163.6540 C.3     1  UNL1        0.0021
     37 C         144.6571  139.3221  164.0141 C.3     1  UNL1        0.0242
@<TRIPOS>BOND
     1    36    37    1
     2    25    37    1
     3    25    21    1
     4    21    22   am
     5    22    23    2
     6    22     1    1
     7     1     2   ar
     8     2     3   ar
     9     3    10    1
    10    10    11    2
    11    10    12   am
    12    12    13    1
    13    13    14    1
    14    14    15    1
    15    15    16    1
    16    16    17    1
    17    17    18    1
    18    17    19    1
    19    17    20    1
    20     3     4   ar
    21     4     5   ar
    22     5     6    1
    23     6     7    1
    24     7     8    1
    25     8     9    1
    26    25    26    1
    27    26    27   ar
    28    27    28   ar
    29    28    29   ar
    30    29    32    1
    31    32    33    1
    32    32    34    1
    33    32    35    1
    34    29    30   ar
    35    30    31   ar
    36     5     1   ar
    37    31    26   ar
    38    16    12    1
    39     9     4    1
    40    21    24    1
@<TRIPOS>MOLECULE
*****
 37 40 0 0 0
SMALL
GASTEIGER

@<TRIPOS>ATOM
      1 C         141.4565  139.0924  159.8687 C.ar    1  UNL1        0.0690
      2 C         142.4232  140.0740  160.4620 C.ar    1  UNL1        0.0275
      3 C         141.9197  140.4558  161.8225 C.ar    1  UNL1        0.1142
      4 N         140.6419  139.7101  162.0699 N.ar    1  UNL1       -0.3223
      5 C         140.3556  138.8675  160.8625 C.ar    1  UNL1        0.0717
      6 C         139.1295  138.0043  160.8238 C.3     1  UNL1        0.1857
      7 O         138.1897  137.9838  161.9927 O.3     1  UNL1       -0.3454
      8 C         138.4760  138.8264  163.2002 C.3     1  UNL1        0.1671
      9 C         139.7021  139.6896  163.2388 C.3     1  UNL1        0.1379
     10 C         142.5784  141.4148  162.7692 C.2     1  UNL1        0.2651
     11 O         143.8439  141.0239  163.4732 O.2     1  UNL1       -0.2683
     12 N         141.9715  142.7650  163.0120 N.am    1  UNL1       -0.2687
     13 C         140.7161  143.2933  162.3837 C.3     1  UNL1        0.0941
     14 C         140.4823  144.6786  162.9091 C.3     1  UNL1        0.0235
     15 C         141.5931  145.0066  163.8621 C.3     1  UNL1        0.0303
     16 C         142.5136  143.8239  163.9257 C.3     1  UNL1        0.1708
     17 C         143.7576  143.7186  164.7571 C.3     1  UNL1        0.4138
     18 F         145.0018  143.6133  165.5884 F       1  UNL1       -0.1682
     19 F         144.5247  144.4607  163.7032 F       1  UNL1       -0.1682
     20 F         142.9905  142.9764  165.8111 F       1  UNL1       -0.1682
     21 N         142.8553  137.7926  158.1068 N.am    1  UNL1       -0.2986
     22 C         141.5707  138.4486  158.5187 C.2     1  UNL1        0.2472
     23 O         140.4004  138.4608  157.5806 O.2     1  UNL1       -0.2701
     24 H         143.6234  137.7846  158.7225 H       1  UNL1        0.1500
     25 C         142.9694  137.1489  156.7568 C.3     1  UNL1        0.0958
     26 C         142.8110  135.6637  156.6182 C.ar    1  UNL1        0.0147
     27 C         141.8845  135.1018  155.5810 C.ar    1  UNL1        0.0003
     28 C         141.7261  133.6166  155.4425 C.ar    1  UNL1        0.0228
     29 C         142.4943  132.6934  156.3412 C.ar    1  UNL1        0.1526
     30 N         143.4208  133.2553  157.3783 N.ar    1  UNL1       -0.2401
     31 C         143.5792  134.7405  157.5169 C.ar    1  UNL1        0.0960
     32 C         142.3359  131.2082  156.2026 C.3     1  UNL1        0.4348
     33 F         142.1775  129.7231  156.0641 F       1  UNL1       -0.1644
     34 F         141.1963  131.4186  155.2502 F       1  UNL1       -0.1644
     35 F         143.4754  130.9979  157.1551 F       1  UNL1       -0.1644
     36 C         143.8524  139.3518  155.6998 C.3     1  UNL1        0.0021
     37 C         143.2420  137.9904  155.5453 C.3     1  UNL1        0.0242
@<TRIPOS>BOND
     1    36    37    1
     2    25    37    1
     3    25    21    1
     4    21    22   am
     5    22    23    2
     6    22     1    1
     7     1     2   ar
     8     2     3   ar
     9     3    10    1
    10    10    11    2
    11    10    12   am
    12    12    13    1
    13    13    14    1
    14    14    15    1
    15    15    16    1
    16    16    17    1
    17    17    18    1
    18    17    19    1
    19    17    20    1
    20     3     4   ar
    21     4     5   ar
    22     5     6    1
    23     6     7    1
    24     7     8    1
    25     8     9    1
    26    25    26    1
    27    26    27   ar
    28    27    28   ar
    29    28    29   ar
    30    29    32    1
    31    32    33    1
    32    32    34    1
    33    32    35    1
    34    29    30   ar
    35    30    31   ar
    36     5     1   ar
    37    31    26   ar
    38    16    12    1
    39     9     4    1
    40    21    24    1
@<TRIPOS>MOLECULE
*****
 37 40 0 0 0
SMALL
GASTEIGER

@<TRIPOS>ATOM
      1 C         143.2879  139.6717  159.6545 C.ar    1  UNL1        0.0690
      2 C         142.8589  138.3785  159.0270 C.ar    1  UNL1        0.0275
      3 C         143.1157  138.4714  157.5521 C.ar    1  UNL1        0.1142
      4 N         143.7034  139.8219  157.2680 N.ar    1  UNL1       -0.3223
      5 C         143.8098  140.5638  158.5673 C.ar    1  UNL1        0.0717
      6 C         144.3682  141.9557  158.5927 C.3     1  UNL1        0.1857
      7 O         144.8202  142.6057  157.3187 O.3     1  UNL1       -0.3454
      8 C         144.7138  141.8639  156.0194 C.3     1  UNL1        0.1671
      9 C         144.1554  140.4719  155.9940 C.3     1  UNL1        0.1379
     10 C         142.8343  137.4015  156.5391 C.2     1  UNL1        0.2651
     11 O         143.8967  136.4023  156.1886 O.2     1  UNL1       -0.2683
     12 N         141.4903  137.3308  155.8766 N.am    1  UNL1       -0.2687
     13 C         140.3356  138.2556  156.1241 C.3     1  UNL1        0.0941
     14 C         139.1968  137.8192  155.2507 C.3     1  UNL1        0.0235
     15 C         139.6477  136.6247  154.4635 C.3     1  UNL1        0.0303
     16 C         141.0652  136.3228  154.8503 C.3     1  UNL1        0.1708
     17 C         141.9093  135.2086  154.3064 C.3     1  UNL1        0.4138
     18 F         142.7535  134.0944  153.7623 F       1  UNL1       -0.1682
     19 F         142.3760  136.1038  153.1969 F       1  UNL1       -0.1682
     20 F         141.4427  134.3134  155.4158 F       1  UNL1       -0.1682
     21 N         143.8143  139.0939  162.1322 N.am    1  UNL1       -0.2986
     22 C         143.2088  140.0130  161.1130 C.2     1  UNL1        0.2472
     23 O         142.5243  141.2732  161.5524 O.2     1  UNL1       -0.2701
     24 H         144.2636  138.2667  161.8439 H       1  UNL1        0.1500
     25 C         143.7352  139.4351  163.5908 C.3     1  UNL1        0.0958
     26 C         142.4376  139.2822  164.3275 C.ar    1  UNL1        0.0147
     27 C         141.6509  138.0109  164.2051 C.ar    1  UNL1        0.0003
     28 C         140.3533  137.8579  164.9418 C.ar    1  UNL1        0.0228
     29 C         139.8425  138.9762  165.8011 C.ar    1  UNL1        0.1526
     30 N         140.6291  140.2475  165.9236 N.ar    1  UNL1       -0.2401
     31 C         141.9267  140.4005  165.1868 C.ar    1  UNL1        0.0960
     32 C         138.5449  138.8233  166.5379 C.3     1  UNL1        0.4348
     33 F         137.2473  138.6703  167.2746 F       1  UNL1       -0.1644
     34 F         138.1785  137.6688  165.6530 F       1  UNL1       -0.1644
     35 F         138.9112  139.9777  167.4227 F       1  UNL1       -0.1644
     36 C         145.6000  141.2179  163.8975 C.3     1  UNL1        0.0021
     37 C         144.9538  139.9293  164.3124 C.3     1  UNL1        0.0242
@<TRIPOS>BOND
     1    36    37    1
     2    25    37    1
     3    25    21    1
     4    21    22   am
     5    22    23    2
     6    22     1    1
     7     1     2   ar
     8     2     3   ar
     9     3    10    1
    10    10    11    2
    11    10    12   am
    12    12    13    1
    13    13    14    1
    14    14    15    1
    15    15    16    1
    16    16    17    1
    17    17    18    1
    18    17    19    1
    19    17    20    1
    20     3     4   ar
    21     4     5   ar
    22     5     6    1
    23     6     7    1
    24     7     8    1
    25     8     9    1
    26    25    26    1
    27    26    27   ar
    28    27    28   ar
    29    28    29   ar
    30    29    32    1
    31    32    33    1
    32    32    34    1
    33    32    35    1
    34    29    30   ar
    35    30    31   ar
    36     5     1   ar
    37    31    26   ar
    38    16    12    1
    39     9     4    1
    40    21    24    1
@<TRIPOS>MOLECULE
*****
 37 40 0 0 0
SMALL
GASTEIGER

@<TRIPOS>ATOM
      1 C         141.0799  138.3814  158.0207 C.ar    1  UNL1        0.0690
      2 C         141.3618  138.7256  159.4532 C.ar    1  UNL1        0.0275
      3 C         140.2922  139.6665  159.9229 C.ar    1  UNL1        0.1142
      4 N         139.3493  139.9039  158.7807 N.ar    1  UNL1       -0.3223
      5 C         139.8361  139.1096  157.6050 C.ar    1  UNL1        0.0717
      6 C         139.0839  139.1520  156.3080 C.3     1  UNL1        0.1857
      7 O         137.8449  139.9887  156.1866 O.3     1  UNL1       -0.3454
      8 C         137.3581  140.7830  157.3622 C.3     1  UNL1        0.1671
      9 C         138.1103  140.7406  158.6593 C.3     1  UNL1        0.1379
     10 C         140.1845  140.2651  161.2940 C.2     1  UNL1        0.2651
     11 O         140.5328  141.7076  161.5122 O.2     1  UNL1       -0.2683
     12 N         139.7283  139.4210  162.4472 N.am    1  UNL1       -0.2687
     13 C         139.3478  137.9716  162.3825 C.3     1  UNL1        0.0941
     14 C         138.9569  137.5330  163.7627 C.3     1  UNL1        0.0235
     15 C         139.0958  138.7114  164.6803 C.3     1  UNL1        0.0303
     16 C         139.5726  139.8783  163.8672 C.3     1  UNL1        0.1708
     17 C         139.8457  141.2599  164.3836 C.3     1  UNL1        0.4138
     18 F         140.1187  142.6415  164.8999 F       1  UNL1       -0.1682
     19 F         138.4140  141.6344  164.1387 F       1  UNL1       -0.1682
     20 F         141.2774  140.8854  164.6285 F       1  UNL1       -0.1682
     21 N         141.2418  136.3254  156.4405 N.am    1  UNL1       -0.2986
     22 C         141.8981  137.4691  157.1556 C.2     1  UNL1        0.2472
     23 O         143.3725  137.7005  157.0056 O.2     1  UNL1       -0.2701
     24 H         140.2741  136.1735  156.5389 H       1  UNL1        0.1500
     25 C         142.0601  135.4132  155.5754 C.3     1  UNL1        0.0958
     26 C         142.6315  134.1498  156.1476 C.ar    1  UNL1        0.0147
     27 C         143.8351  134.2083  157.0409 C.ar    1  UNL1        0.0003
     28 C         144.4065  132.9449  157.6131 C.ar    1  UNL1        0.0228
     29 C         143.7743  131.6231  157.2921 C.ar    1  UNL1        0.1526
     30 N         142.5706  131.5647  156.3989 N.ar    1  UNL1       -0.2401
     31 C         141.9992  132.8280  155.8266 C.ar    1  UNL1        0.0960
     32 C         144.3457  130.3598  157.8643 C.3     1  UNL1        0.4348
     33 F         144.9171  129.0965  158.4365 F       1  UNL1       -0.1644
     34 F         143.1541  129.5959  157.3677 F       1  UNL1       -0.1644
     35 F         145.5372  131.1237  158.3609 F       1  UNL1       -0.1644
     36 C         141.4388  135.1796  153.0636 C.3     1  UNL1        0.0021
     37 C         142.3068  135.7643  154.1382 C.3     1  UNL1        0.0242
@<TRIPOS>BOND
     1    36    37    1
     2    25    37    1
     3    25    21    1
     4    21    22   am
     5    22    23    2
     6    22     1    1
     7     1     2   ar
     8     2     3   ar
     9     3    10    1
    10    10    11    2
    11    10    12   am
    12    12    13    1
    13    13    14    1
    14    14    15    1
    15    15    16    1
    16    16    17    1
    17    17    18    1
    18    17    19    1
    19    17    20    1
    20     3     4   ar
    21     4     5   ar
    22     5     6    1
    23     6     7    1
    24     7     8    1
    25     8     9    1
    26    25    26    1
    27    26    27   ar
    28    27    28   ar
    29    28    29   ar
    30    29    32    1
    31    32    33    1
    32    32    34    1
    33    32    35    1
    34    29    30   ar
    35    30    31   ar
    36     5     1   ar
    37    31    26   ar
    38    16    12    1
    39     9     4    1
    40    21    24    1
