@<TRIPOS>MOLECULE
*****
 27 30 0 0 0
SMALL
GASTEIGER

@<TRIPOS>ATOM
      1 N         140.3467  142.2885  164.0005 N.ar    1  UNL1       -0.2314
      2 N         140.8914  141.6006  162.7840 N.ar    1  UNL1       -0.1624
      3 C         140.8796  142.5838  161.6512 C.ar    1  UNL1        0.1367
      4 C         141.3001  142.4667  160.2161 C.ar    1  UNL1        0.1731
      5 N         141.1687  143.6452  159.2975 N.ar    1  UNL1       -0.1316
      6 N         140.6168  144.9407  159.8139 N.ar    1  UNL1       -0.1510
      7 C         140.1962  145.0579  161.2490 C.ar    1  UNL1        0.0836
      8 C         139.6442  146.3535  161.7654 C.3     1  UNL1        0.0541
      9 C         140.3276  143.8794  162.1676 C.ar    1  UNL1        0.0511
     10 C         139.9983  143.6969  163.6196 C.ar    1  UNL1        0.0637
     11 C         139.4217  144.7398  164.5306 C.3     1  UNL1        0.0522
     12 C         139.8457  140.4502  168.0772 C.ar    1  UNL1        0.1409
     13 C         140.6672  141.6942  167.9113 C.ar    1  UNL1        0.0386
     14 C         140.8342  142.3070  166.5524 C.ar    1  UNL1        0.0245
     15 C         140.1797  141.6758  165.3595 C.ar    1  UNL1        0.1100
     16 C         139.3583  140.4317  165.5254 C.ar    1  UNL1        0.1607
     17 F         138.7038  139.8004  164.3324 F       1  UNL1       -0.2025
     18 C         139.1913  139.8189  166.8843 C.ar    1  UNL1        0.0681
     19 O         139.6787  139.8374  169.4362 O.3     1  UNL1       -0.4754
     20 C         142.1320  139.1748  169.9768 C.3     1  UNL1        0.0512
     21 C         140.8350  139.8041  170.3911 C.3     1  UNL1        0.2055
     22 N         141.8521  141.1710  159.6997 N.pl3   1  UNL1       -0.2855
     23 C         141.3696  139.7511  159.6653 C.3     1  UNL1        0.1235
     24 C         142.6328  139.3387  158.9693 C.3     1  UNL1        0.1547
     25 C         143.1152  140.7586  159.0037 C.3     1  UNL1        0.1235
     26 O         143.1848  138.0432  158.4529 O.3     1  UNL1       -0.3501
     27 C         142.8014  137.5559  157.0870 C.3     1  UNL1        0.1741
@<TRIPOS>BOND
     1    20    21    1
     2    21    19    1
     3    19    12    1
     4    12    13   ar
     5    13    14   ar
     6    14    15   ar
     7    15     1    1
     8     1     2   ar
     9     2     3   ar
    10     3     4   ar
    11     4    22    1
    12    22    23    1
    13    23    24    1
    14    24    26    1
    15    26    27    1
    16    24    25    1
    17     4     5   ar
    18     5     6   ar
    19     6     7   ar
    20     7     8    1
    21     7     9   ar
    22     9    10   ar
    23    10    11    1
    24    15    16   ar
    25    16    17    1
    26    16    18   ar
    27    18    12   ar
    28    10     1   ar
    29     9     3   ar
    30    25    22    1
@<TRIPOS>MOLECULE
*****
 27 30 0 0 0
SMALL
GASTEIGER

@<TRIPOS>ATOM
      1 N         141.8132  138.5619  160.4553 N.ar    1  UNL1       -0.2314
      2 N         141.9547  137.6611  159.2643 N.ar    1  UNL1       -0.1624
      3 C         142.8204  138.3576  158.2565 C.ar    1  UNL1        0.1367
      4 C         143.3011  137.9516  156.8949 C.ar    1  UNL1        0.1731
      5 N         144.1753  138.8769  156.1014 N.ar    1  UNL1       -0.1316
      6 N         144.5687  140.2082  156.6696 N.ar    1  UNL1       -0.1510
      7 C         144.0880  140.6142  158.0312 C.ar    1  UNL1        0.0836
      8 C         144.4814  141.9456  158.5993 C.3     1  UNL1        0.0541
      9 C         143.2138  139.6889  158.8247 C.ar    1  UNL1        0.0511
     10 C         142.5913  139.8152  160.1835 C.ar    1  UNL1        0.0637
     11 C         142.7238  140.9887  161.1084 C.3     1  UNL1        0.0522
     12 C         139.4664  137.6626  164.1881 C.ar    1  UNL1        0.1409
     13 C         138.7496  137.9355  162.8990 C.ar    1  UNL1        0.0386
     14 C         139.5318  138.2353  161.6547 C.ar    1  UNL1        0.0245
     15 C         141.0309  138.2621  161.6996 C.ar    1  UNL1        0.1100
     16 C         141.7477  137.9892  162.9886 C.ar    1  UNL1        0.1607
     17 F         143.2469  138.0161  163.0334 F       1  UNL1       -0.2025
     18 C         140.9655  137.6895  164.2329 C.ar    1  UNL1        0.0681
     19 O         138.6841  137.3628  165.4324 O.3     1  UNL1       -0.4754
     20 C         138.8997  139.3818  167.0531 C.3     1  UNL1        0.0512
     21 C         138.0505  138.4799  166.2073 C.3     1  UNL1        0.2055
     22 N         142.9077  136.6202  156.3268 N.pl3   1  UNL1       -0.2855
     23 C         141.6060  135.9371  156.0285 C.3     1  UNL1        0.1235
     24 C         142.3513  134.7374  155.5233 C.3     1  UNL1        0.1547
     25 C         143.6530  135.4206  155.8216 C.3     1  UNL1        0.1235
     26 O         141.9579  133.4061  154.9552 O.3     1  UNL1       -0.3501
     27 C         142.0707  132.1690  155.7960 C.3     1  UNL1        0.1741
@<TRIPOS>BOND
     1    20    21    1
     2    21    19    1
     3    19    12    1
     4    12    13   ar
     5    13    14   ar
     6    14    15   ar
     7    15     1    1
     8     1     2   ar
     9     2     3   ar
    10     3     4   ar
    11     4    22    1
    12    22    23    1
    13    23    24    1
    14    24    26    1
    15    26    27    1
    16    24    25    1
    17     4     5   ar
    18     5     6   ar
    19     6     7   ar
    20     7     8    1
    21     7     9   ar
    22     9    10   ar
    23    10    11    1
    24    15    16   ar
    25    16    17    1
    26    16    18   ar
    27    18    12   ar
    28    10     1   ar
    29     9     3   ar
    30    25    22    1
@<TRIPOS>MOLECULE
*****
 27 30 0 0 0
SMALL
GASTEIGER

@<TRIPOS>ATOM
      1 N         141.1281  139.6465  165.1221 N.ar    1  UNL1       -0.2314
      2 N         141.5434  140.4060  166.3471 N.ar    1  UNL1       -0.1624
      3 C         140.4992  140.1903  167.4023 C.ar    1  UNL1        0.1367
      4 C         140.3773  140.6915  168.8108 C.ar    1  UNL1        0.1731
      5 N         139.1947  140.3000  169.6464 N.ar    1  UNL1       -0.1316
      6 N         138.1341  139.4074  169.0735 N.ar    1  UNL1       -0.1510
      7 C         138.2561  138.9062  167.6650 C.ar    1  UNL1        0.0836
      8 C         137.1954  138.0135  167.0921 C.3     1  UNL1        0.0541
      9 C         139.4387  139.2976  166.8294 C.ar    1  UNL1        0.0511
     10 C         139.8273  138.9616  165.4201 C.ar    1  UNL1        0.0637
     11 C         139.0513  138.0930  164.4749 C.3     1  UNL1        0.0522
     12 C         143.3876  139.4564  161.2352 C.ar    1  UNL1        0.1409
     13 C         142.0271  140.0863  161.2817 C.ar    1  UNL1        0.0386
     14 C         141.2739  140.1497  162.5773 C.ar    1  UNL1        0.0245
     15 C         141.8813  139.5832  163.8264 C.ar    1  UNL1        0.1100
     16 C         143.2418  138.9533  163.7798 C.ar    1  UNL1        0.1607
     17 F         143.8492  138.3868  165.0290 F       1  UNL1       -0.2025
     18 C         143.9950  138.8899  162.4842 C.ar    1  UNL1        0.0681
     19 O         144.1408  139.3931  159.9395 O.3     1  UNL1       -0.4754
     20 C         144.4950  140.6580  157.6980 C.3     1  UNL1        0.0512
     21 C         143.5759  140.0424  158.7110 C.3     1  UNL1        0.2055
     22 N         141.4379  141.5842  169.3838 N.pl3   1  UNL1       -0.2855
     23 C         141.5913  143.0646  169.5703 C.3     1  UNL1        0.1235
     24 C         142.9379  142.8466  170.1940 C.3     1  UNL1        0.1547
     25 C         142.7846  141.3661  170.0075 C.3     1  UNL1        0.1235
     26 O         143.9985  143.7392  170.7669 O.3     1  UNL1       -0.3501
     27 C         145.4432  143.4835  170.4543 C.3     1  UNL1        0.1741
@<TRIPOS>BOND
     1    20    21    1
     2    21    19    1
     3    19    12    1
     4    12    13   ar
     5    13    14   ar
     6    14    15   ar
     7    15     1    1
     8     1     2   ar
     9     2     3   ar
    10     3     4   ar
    11     4    22    1
    12    22    23    1
    13    23    24    1
    14    24    26    1
    15    26    27    1
    16    24    25    1
    17     4     5   ar
    18     5     6   ar
    19     6     7   ar
    20     7     8    1
    21     7     9   ar
    22     9    10   ar
    23    10    11    1
    24    15    16   ar
    25    16    17    1
    26    16    18   ar
    27    18    12   ar
    28    10     1   ar
    29     9     3   ar
    30    25    22    1
@<TRIPOS>MOLECULE
*****
 27 30 0 0 0
SMALL
GASTEIGER

@<TRIPOS>ATOM
      1 N         141.9732  142.3773  163.2789 N.ar    1  UNL1       -0.2314
      2 N         142.5351  142.0827  161.9197 N.ar    1  UNL1       -0.1624
      3 C         142.0573  143.1495  160.9795 C.ar    1  UNL1        0.1367
      4 C         142.2919  143.3754  159.5153 C.ar    1  UNL1        0.1731
      5 N         141.6695  144.5552  158.8293 N.ar    1  UNL1       -0.1316
      6 N         140.8125  145.5090  159.6074 N.ar    1  UNL1       -0.1510
      7 C         140.5778  145.2830  161.0716 C.ar    1  UNL1        0.0836
      8 C         139.7206  146.2369  161.8498 C.3     1  UNL1        0.0541
      9 C         141.2002  144.1033  161.7577 C.ar    1  UNL1        0.0511
     10 C         141.1482  143.6261  163.1788 C.ar    1  UNL1        0.0637
     11 C         140.4022  144.2825  164.3025 C.3     1  UNL1        0.0522
     12 C         142.6448  139.9426  167.0033 C.ar    1  UNL1        0.1409
     13 C         141.8333  139.3787  165.8748 C.ar    1  UNL1        0.0386
     14 C         141.6094  140.1903  164.6334 C.ar    1  UNL1        0.0245
     15 C         142.1971  141.5657  164.5204 C.ar    1  UNL1        0.1100
     16 C         143.0086  142.1296  165.6489 C.ar    1  UNL1        0.1607
     17 F         143.5962  143.5051  165.5359 F       1  UNL1       -0.2025
     18 C         143.2324  141.3180  166.8904 C.ar    1  UNL1        0.0681
     19 O         142.8686  139.1310  168.2448 O.3     1  UNL1       -0.4754
     20 C         140.8077  139.8904  169.6324 C.3     1  UNL1        0.0512
     21 C         142.2713  139.5731  169.5477 C.3     1  UNL1        0.2055
     22 N         143.1491  142.4215  158.7371 N.pl3   1  UNL1       -0.2855
     23 C         144.6177  142.1224  158.6768 C.3     1  UNL1        0.1235
     24 C         144.3612  141.0725  157.6366 C.3     1  UNL1        0.1547
     25 C         142.8925  141.3716  157.6970 C.3     1  UNL1        0.1235
     26 O         145.2182  140.1187  156.8585 O.3     1  UNL1       -0.3501
     27 C         145.4995  140.3755  155.4076 C.3     1  UNL1        0.1741
@<TRIPOS>BOND
     1    20    21    1
     2    21    19    1
     3    19    12    1
     4    12    13   ar
     5    13    14   ar
     6    14    15   ar
     7    15     1    1
     8     1     2   ar
     9     2     3   ar
    10     3     4   ar
    11     4    22    1
    12    22    23    1
    13    23    24    1
    14    24    26    1
    15    26    27    1
    16    24    25    1
    17     4     5   ar
    18     5     6   ar
    19     6     7   ar
    20     7     8    1
    21     7     9   ar
    22     9    10   ar
    23    10    11    1
    24    15    16   ar
    25    16    17    1
    26    16    18   ar
    27    18    12   ar
    28    10     1   ar
    29     9     3   ar
    30    25    22    1
@<TRIPOS>MOLECULE
*****
 27 30 0 0 0
SMALL
GASTEIGER

@<TRIPOS>ATOM
      1 N         141.1796  140.1774  164.1269 N.ar    1  UNL1       -0.2314
      2 N         141.8941  140.6150  162.8827 N.ar    1  UNL1       -0.1624
      3 C         141.0720  140.1896  161.7022 C.ar    1  UNL1        0.1367
      4 C         141.2787  140.3496  160.2252 C.ar    1  UNL1        0.1731
      5 N         140.2630  139.8091  159.2628 N.ar    1  UNL1       -0.1316
      6 N         139.0406  139.1086  159.7775 N.ar    1  UNL1       -0.1510
      7 C         138.8339  138.9486  161.2546 C.ar    1  UNL1        0.0836
      8 C         137.6114  138.2480  161.7692 C.3     1  UNL1        0.0541
      9 C         139.8496  139.4891  162.2169 C.ar    1  UNL1        0.0511
     10 C         139.9161  139.4815  163.7154 C.ar    1  UNL1        0.0637
     11 C         138.8978  138.8832  164.6401 C.3     1  UNL1        0.0522
     12 C         142.5808  140.8362  168.3521 C.ar    1  UNL1        0.1409
     13 C         141.9679  141.9670  167.5803 C.ar    1  UNL1        0.0386
     14 C         141.5008  141.7474  166.1719 C.ar    1  UNL1        0.0245
     15 C         141.6467  140.3971  165.5353 C.ar    1  UNL1        0.1100
     16 C         142.2596  139.2663  166.3072 C.ar    1  UNL1        0.1607
     17 F         142.4055  137.9159  165.6705 F       1  UNL1       -0.2025
     18 C         142.7267  139.4859  167.7155 C.ar    1  UNL1        0.0681
     19 O         143.0479  141.0559  169.7605 O.3     1  UNL1       -0.4754
     20 C         140.7343  140.3084  170.6759 C.3     1  UNL1        0.0512
     21 C         142.0799  140.9323  170.8996 C.3     1  UNL1        0.2055
     22 N         142.5012  141.0502  159.7105 N.pl3   1  UNL1       -0.2855
     23 C         142.7510  142.2446  158.8381 C.3     1  UNL1        0.1235
     24 C         144.2301  142.0408  158.9827 C.3     1  UNL1        0.1547
     25 C         143.9803  140.8465  159.8551 C.3     1  UNL1        0.1235
     26 O         145.4525  142.7413  158.4681 O.3     1  UNL1       -0.3501
     27 C         146.0511  142.3370  157.1535 C.3     1  UNL1        0.1741
@<TRIPOS>BOND
     1    20    21    1
     2    21    19    1
     3    19    12    1
     4    12    13   ar
     5    13    14   ar
     6    14    15   ar
     7    15     1    1
     8     1     2   ar
     9     2     3   ar
    10     3     4   ar
    11     4    22    1
    12    22    23    1
    13    23    24    1
    14    24    26    1
    15    26    27    1
    16    24    25    1
    17     4     5   ar
    18     5     6   ar
    19     6     7   ar
    20     7     8    1
    21     7     9   ar
    22     9    10   ar
    23    10    11    1
    24    15    16   ar
    25    16    17    1
    26    16    18   ar
    27    18    12   ar
    28    10     1   ar
    29     9     3   ar
    30    25    22    1
@<TRIPOS>MOLECULE
*****
 27 30 0 0 0
SMALL
GASTEIGER

@<TRIPOS>ATOM
      1 N         140.7024  141.2630  164.4973 N.ar    1  UNL1       -0.2314
      2 N         140.9464  141.9791  163.2021 N.ar    1  UNL1       -0.1624
      3 C         140.3469  141.1586  162.0987 C.ar    1  UNL1        0.1367
      4 C         140.2813  141.3673  160.6148 C.ar    1  UNL1        0.1731
      5 N         139.6011  140.3528  159.7441 N.ar    1  UNL1       -0.1316
      6 N         138.9866  139.1296  160.3574 N.ar    1  UNL1       -0.1510
      7 C         139.0523  138.9209  161.8413 C.ar    1  UNL1        0.0836
      8 C         138.4378  137.6976  162.4546 C.3     1  UNL1        0.0541
      9 C         139.7325  139.9354  162.7120 C.ar    1  UNL1        0.0511
     10 C         139.9521  139.9999  164.1944 C.ar    1  UNL1        0.0637
     11 C         139.5008  138.9803  165.1978 C.3     1  UNL1        0.0522
     12 C         141.9944  142.6586  168.5757 C.ar    1  UNL1        0.1409
     13 C         140.5671  142.8221  168.1443 C.ar    1  UNL1        0.0386
     14 C         140.1364  142.3569  166.7849 C.ar    1  UNL1        0.0245
     15 C         141.1331  141.7282  165.8568 C.ar    1  UNL1        0.1100
     16 C         142.5604  141.5648  166.2882 C.ar    1  UNL1        0.1607
     17 F         143.5570  140.9360  165.3600 F       1  UNL1       -0.2025
     18 C         142.9910  142.0300  167.6476 C.ar    1  UNL1        0.0681
     19 O         142.4250  143.1239  169.9352 O.3     1  UNL1       -0.4754
     20 C         141.1516  141.2012  171.1315 C.3     1  UNL1        0.0512
     21 C         142.2426  142.2305  171.1262 C.3     1  UNL1        0.2055
     22 N         140.8958  142.5905  160.0015 N.pl3   1  UNL1       -0.2855
     23 C         142.0035  142.8439  159.0222 C.3     1  UNL1        0.1235
     24 C         141.7648  144.3205  159.1342 C.3     1  UNL1        0.1547
     25 C         140.6571  144.0672  160.1135 C.3     1  UNL1        0.1235
     26 O         142.3792  145.5437  158.5210 O.3     1  UNL1       -0.3501
     27 C         141.9483  145.9963  157.1573 C.3     1  UNL1        0.1741
@<TRIPOS>BOND
     1    20    21    1
     2    21    19    1
     3    19    12    1
     4    12    13   ar
     5    13    14   ar
     6    14    15   ar
     7    15     1    1
     8     1     2   ar
     9     2     3   ar
    10     3     4   ar
    11     4    22    1
    12    22    23    1
    13    23    24    1
    14    24    26    1
    15    26    27    1
    16    24    25    1
    17     4     5   ar
    18     5     6   ar
    19     6     7   ar
    20     7     8    1
    21     7     9   ar
    22     9    10   ar
    23    10    11    1
    24    15    16   ar
    25    16    17    1
    26    16    18   ar
    27    18    12   ar
    28    10     1   ar
    29     9     3   ar
    30    25    22    1
@<TRIPOS>MOLECULE
*****
 27 30 0 0 0
SMALL
GASTEIGER

@<TRIPOS>ATOM
      1 N         141.3812  141.2369  161.7462 N.ar    1  UNL1       -0.2314
      2 N         141.6097  140.9191  163.1942 N.ar    1  UNL1       -0.1624
      3 C         140.9254  141.9729  164.0136 C.ar    1  UNL1        0.1367
      4 C         140.8113  142.1752  165.4955 C.ar    1  UNL1        0.1731
      5 N         140.0458  143.3465  166.0358 N.ar    1  UNL1       -0.1316
      6 N         139.3944  144.3155  165.0942 N.ar    1  UNL1       -0.1510
      7 C         139.5085  144.1132  163.6123 C.ar    1  UNL1        0.0836
      8 C         138.8570  145.0823  162.6707 C.3     1  UNL1        0.0541
      9 C         140.2740  142.9419  163.0720 C.ar    1  UNL1        0.0511
     10 C         140.5557  142.4870  161.6706 C.ar    1  UNL1        0.0637
     11 C         140.0930  143.1635  160.4144 C.3     1  UNL1        0.0522
     12 C         142.9047  138.8577  158.2436 C.ar    1  UNL1        0.1409
     13 C         141.5449  138.5728  158.8092 C.ar    1  UNL1        0.0386
     14 C         141.0371  139.3659  159.9767 C.ar    1  UNL1        0.0245
     15 C         141.8890  140.4438  160.5786 C.ar    1  UNL1        0.1100
     16 C         143.2488  140.7286  160.0130 C.ar    1  UNL1        0.1607
     17 F         144.1007  141.8066  160.6149 F       1  UNL1       -0.2025
     18 C         143.7566  139.9356  158.8455 C.ar    1  UNL1        0.0681
     19 O         143.4125  138.0646  157.0760 O.3     1  UNL1       -0.4754
     20 C         143.0303  135.4970  156.9696 C.3     1  UNL1        0.0512
     21 C         142.6313  136.8873  156.5723 C.3     1  UNL1        0.2055
     22 N         141.4627  141.2061  166.4371 N.pl3   1  UNL1       -0.2855
     23 C         141.2127  139.7812  166.8334 C.3     1  UNL1        0.1235
     24 C         142.3841  139.8357  167.7687 C.3     1  UNL1        0.1547
     25 C         142.6341  141.2607  167.3724 C.3     1  UNL1        0.1235
     26 O         143.0355  138.8667  168.7103 O.3     1  UNL1       -0.3501
     27 C         142.5548  138.7594  170.1272 C.3     1  UNL1        0.1741
@<TRIPOS>BOND
     1    20    21    1
     2    21    19    1
     3    19    12    1
     4    12    13   ar
     5    13    14   ar
     6    14    15   ar
     7    15     1    1
     8     1     2   ar
     9     2     3   ar
    10     3     4   ar
    11     4    22    1
    12    22    23    1
    13    23    24    1
    14    24    26    1
    15    26    27    1
    16    24    25    1
    17     4     5   ar
    18     5     6   ar
    19     6     7   ar
    20     7     8    1
    21     7     9   ar
    22     9    10   ar
    23    10    11    1
    24    15    16   ar
    25    16    17    1
    26    16    18   ar
    27    18    12   ar
    28    10     1   ar
    29     9     3   ar
    30    25    22    1
@<TRIPOS>MOLECULE
*****
 27 30 0 0 0
SMALL
GASTEIGER

@<TRIPOS>ATOM
      1 N         141.2014  140.4225  163.1435 N.ar    1  UNL1       -0.2314
      2 N         142.0190  140.8519  161.9615 N.ar    1  UNL1       -0.1624
      3 C         141.1478  140.7751  160.7428 C.ar    1  UNL1        0.1367
      4 C         141.4141  141.0779  159.2980 C.ar    1  UNL1        0.1731
      5 N         140.3245  140.9037  158.2820 N.ar    1  UNL1       -0.1316
      6 N         138.9685  140.4269  158.7108 N.ar    1  UNL1       -0.1510
      7 C         138.7022  140.1242  160.1556 C.ar    1  UNL1        0.0836
      8 C         137.3461  139.6473  160.5844 C.3     1  UNL1        0.0541
      9 C         139.7918  140.2983  161.1716 C.ar    1  UNL1        0.0511
     10 C         139.8250  140.0804  162.6553 C.ar    1  UNL1        0.0637
     11 C         138.6822  139.6040  163.5021 C.3     1  UNL1        0.0522
     12 C         142.6274  140.1999  167.4057 C.ar    1  UNL1        0.1409
     13 C         142.5827  138.9591  166.5640 C.ar    1  UNL1        0.0386
     14 C         142.1074  139.0333  165.1433 C.ar    1  UNL1        0.0245
     15 C         141.6768  140.3483  164.5643 C.ar    1  UNL1        0.1100
     16 C         141.7215  141.5891  165.4059 C.ar    1  UNL1        0.1607
     17 F         141.2908  142.9041  164.8268 F       1  UNL1       -0.2025
     18 C         142.1968  141.5149  166.8267 C.ar    1  UNL1        0.0681
     19 O         143.1028  140.1257  168.8265 O.3     1  UNL1       -0.4754
     20 C         143.8836  142.3413  169.9360 C.3     1  UNL1        0.0512
     21 C         142.8487  141.2694  169.7631 C.3     1  UNL1        0.2055
     22 N         142.7702  141.5547  158.8692 N.pl3   1  UNL1       -0.2855
     23 C         144.0803  140.8911  158.5639 C.3     1  UNL1        0.1235
     24 C         144.6879  142.2291  158.2628 C.3     1  UNL1        0.1547
     25 C         143.3777  142.8927  158.5681 C.3     1  UNL1        0.1235
     26 O         146.0438  142.7060  157.8340 O.3     1  UNL1       -0.3501
     27 C         146.5764  142.3350  156.4816 C.3     1  UNL1        0.1741
@<TRIPOS>BOND
     1    20    21    1
     2    21    19    1
     3    19    12    1
     4    12    13   ar
     5    13    14   ar
     6    14    15   ar
     7    15     1    1
     8     1     2   ar
     9     2     3   ar
    10     3     4   ar
    11     4    22    1
    12    22    23    1
    13    23    24    1
    14    24    26    1
    15    26    27    1
    16    24    25    1
    17     4     5   ar
    18     5     6   ar
    19     6     7   ar
    20     7     8    1
    21     7     9   ar
    22     9    10   ar
    23    10    11    1
    24    15    16   ar
    25    16    17    1
    26    16    18   ar
    27    18    12   ar
    28    10     1   ar
    29     9     3   ar
    30    25    22    1
@<TRIPOS>MOLECULE
*****
 27 30 0 0 0
SMALL
GASTEIGER

@<TRIPOS>ATOM
      1 N         141.8263  140.9481  163.5719 N.ar    1  UNL1       -0.2314
      2 N         141.6040  141.8341  162.3821 N.ar    1  UNL1       -0.1624
      3 C         142.2215  141.1695  161.1874 C.ar    1  UNL1        0.1367
      4 C         142.3118  141.5777  159.7469 C.ar    1  UNL1        0.1731
      5 N         143.0060  140.6891  158.7577 N.ar    1  UNL1       -0.1316
      6 N         143.6098  139.3924  159.2091 N.ar    1  UNL1       -0.1510
      7 C         143.5195  138.9842  160.6497 C.ar    1  UNL1        0.0836
      8 C         144.1234  137.6874  161.1011 C.3     1  UNL1        0.0541
      9 C         142.8253  139.8728  161.6388 C.ar    1  UNL1        0.0511
     10 C         142.5811  139.7359  163.1125 C.ar    1  UNL1        0.0637
     11 C         143.0155  138.5883  163.9753 C.3     1  UNL1        0.0522
     12 C         140.4674  141.7800  167.7803 C.ar    1  UNL1        0.1409
     13 C         141.6628  142.4945  167.2231 C.ar    1  UNL1        0.0386
     14 C         142.1158  142.2172  165.8203 C.ar    1  UNL1        0.0245
     15 C         141.3734  141.2254  164.9747 C.ar    1  UNL1        0.1100
     16 C         140.1779  140.5109  165.5319 C.ar    1  UNL1        0.1607
     17 F         139.4355  139.5191  164.6863 F       1  UNL1       -0.2025
     18 C         139.7250  140.7882  166.9347 C.ar    1  UNL1        0.0681
     19 O         140.0144  142.0574  169.1832 O.3     1  UNL1       -0.4754
     20 C         140.2330  139.9656  170.7084 C.3     1  UNL1        0.0512
     21 C         139.3765  140.9688  169.9944 C.3     1  UNL1        0.2055
     22 N         141.7079  142.8745  159.2955 N.pl3   1  UNL1       -0.2855
     23 C         140.3370  143.4811  159.3475 C.3     1  UNL1        0.1235
     24 C         140.8539  144.7084  158.6571 C.3     1  UNL1        0.1547
     25 C         142.2248  144.1018  158.6051 C.3     1  UNL1        0.1235
     26 O         140.2501  146.0052  158.2058 O.3     1  UNL1       -0.3501
     27 C         140.0524  146.2715  156.7428 C.3     1  UNL1        0.1741
@<TRIPOS>BOND
     1    20    21    1
     2    21    19    1
     3    19    12    1
     4    12    13   ar
     5    13    14   ar
     6    14    15   ar
     7    15     1    1
     8     1     2   ar
     9     2     3   ar
    10     3     4   ar
    11     4    22    1
    12    22    23    1
    13    23    24    1
    14    24    26    1
    15    26    27    1
    16    24    25    1
    17     4     5   ar
    18     5     6   ar
    19     6     7   ar
    20     7     8    1
    21     7     9   ar
    22     9    10   ar
    23    10    11    1
    24    15    16   ar
    25    16    17    1
    26    16    18   ar
    27    18    12   ar
    28    10     1   ar
    29     9     3   ar
    30    25    22    1
