@<TRIPOS>MOLECULE
*****
 37 40 0 0 0
SMALL
GASTEIGER

@<TRIPOS>ATOM
      1 N         141.3719  138.0360  164.5240 N.3     1  UNL1       -0.2680
      2 C         139.9917  138.2592  165.0673 C.3     1  UNL1        0.0897
      3 C         138.8158  138.2928  164.1368 C.3     1  UNL1        0.0897
      4 N         139.0200  138.1031  162.6629 N.3     1  UNL1       -0.2679
      5 C         140.4002  137.8798  162.1195 C.3     1  UNL1        0.0897
      6 C         141.5762  137.8463  163.0500 C.3     1  UNL1        0.0897
      7 C         142.5479  138.0024  165.4545 C.3     1  UNL1        0.1064
      8 C         143.1432  139.2841  165.9574 C.3     1  UNL1        0.1483
      9 O         144.3422  139.8728  165.2750 O.3     1  UNL1       -0.3786
     10 H         144.5976  140.6948  165.7222 H       1  UNL1        0.2108
     11 C         141.5837  141.8189  165.5792 C.3     1  UNL1        0.0306
     12 C         141.7596  141.2446  166.9537 C.ar    1  UNL1       -0.0238
     13 C         142.5393  139.9771  167.1429 C.ar    1  UNL1        0.0015
     14 C         142.7152  139.4028  168.5172 C.ar    1  UNL1       -0.0020
     15 C         142.1114  140.0957  169.7026 C.ar    1  UNL1        0.0060
     16 C         141.3317  141.3631  169.5136 C.ar    1  UNL1        0.0748
     17 C         141.1558  141.9376  168.1391 C.ar    1  UNL1        0.0233
     18 C         140.3417  143.1915  168.2614 C.3     1  UNL1        0.2352
     19 O         140.0145  143.3921  169.7115 O.3     1  UNL1       -0.4404
     20 C         140.6263  142.2621  170.4854 C.2     1  UNL1        0.3413
     21 O         140.5468  142.0656  171.9703 O.2     1  UNL1       -0.2449
     22 C         137.8440  138.1367  161.7324 C.3     1  UNL1        0.1080
     23 C         137.3843  139.4409  161.1512 C.3     1  UNL1        0.1660
     24 O         136.2022  139.4757  160.2285 O.3     1  UNL1       -0.3771
     25 H         135.8549  138.5772  160.1140 H       1  UNL1        0.2109
     26 C         138.1068  140.7103  161.4927 C.ar    1  UNL1        0.0871
     27 C         137.6159  141.5734  162.6171 C.ar    1  UNL1        0.0217
     28 C         138.3383  142.8428  162.9586 C.ar    1  UNL1        0.0838
     29 C         139.5516  143.2491  162.1758 C.ar    1  UNL1        0.0914
     30 C         140.0425  142.3861  161.0515 C.ar    1  UNL1        0.1087
     31 N         139.3201  141.1167  160.7099 N.ar    1  UNL1       -0.2450
     32 C         137.8475  143.7059  164.0830 C.3     1  UNL1        0.4193
     33 F         137.3567  144.5690  165.2072 F       1  UNL1       -0.1658
     34 F         137.1389  144.5869  163.0972 F       1  UNL1       -0.1658
     35 F         138.5562  142.8249  165.0686 F       1  UNL1       -0.1658
     36 C         140.2742  144.5186  162.5173 C.1     1  UNL1        0.1019
     37 N         140.9966  145.7880  162.8589 N.1     1  UNL1       -0.1908
@<TRIPOS>BOND
     1    11    12    1
     2    12    13   ar
     3    13     8    1
     4     8     9    1
     5     8     7    1
     6     7     1    1
     7     1     2    1
     8     2     3    1
     9     3     4    1
    10     4    22    1
    11    22    23    1
    12    23    24    1
    13    23    26    1
    14    26    27   ar
    15    27    28   ar
    16    28    32    1
    17    32    33    1
    18    32    34    1
    19    32    35    1
    20    28    29   ar
    21    29    36    1
    22    36    37    3
    23    29    30   ar
    24    30    31   ar
    25     4     5    1
    26     5     6    1
    27    13    14   ar
    28    14    15   ar
    29    15    16   ar
    30    16    17   ar
    31    17    18    1
    32    18    19    1
    33    19    20    1
    34    20    21    2
    35    17    12   ar
    36     6     1    1
    37    20    16    1
    38    31    26   ar
    39     9    10    1
    40    24    25    1
@<TRIPOS>MOLECULE
*****
 37 40 0 0 0
SMALL
GASTEIGER

@<TRIPOS>ATOM
      1 N         141.2670  138.1158  162.4135 N.3     1  UNL1       -0.2680
      2 C         141.0959  137.3865  163.7130 C.3     1  UNL1        0.0897
      3 C         139.9877  137.7703  164.6481 C.3     1  UNL1        0.0897
      4 N         139.0506  138.8834  164.2838 N.3     1  UNL1       -0.2679
      5 C         139.2216  139.6127  162.9842 C.3     1  UNL1        0.0897
      6 C         140.3298  139.2290  162.0490 C.3     1  UNL1        0.0897
      7 C         142.3752  137.7321  161.4783 C.3     1  UNL1        0.1064
      8 C         143.7588  138.2697  161.6943 C.3     1  UNL1        0.1483
      9 O         144.9450  137.5255  161.1566 O.3     1  UNL1       -0.3786
     10 H         145.7572  138.0055  161.3821 H       1  UNL1        0.2108
     11 C         143.5456  140.8986  160.2648 C.3     1  UNL1        0.0306
     12 C         143.8496  140.8659  161.7333 C.ar    1  UNL1       -0.0238
     13 C         143.9562  139.5515  162.4482 C.ar    1  UNL1        0.0015
     14 C         144.2601  139.5188  163.9166 C.ar    1  UNL1       -0.0020
     15 C         144.4575  140.8005  164.6704 C.ar    1  UNL1        0.0060
     16 C         144.3510  142.1149  163.9556 C.ar    1  UNL1        0.0748
     17 C         144.0470  142.1477  162.4871 C.ar    1  UNL1        0.0233
     18 C         144.0029  143.5833  162.0547 C.3     1  UNL1        0.2352
     19 O         144.2796  144.4379  163.2560 O.3     1  UNL1       -0.4404
     20 C         144.4948  143.5304  164.4308 C.2     1  UNL1        0.3413
     21 O         144.8001  143.9625  165.8344 O.2     1  UNL1       -0.2449
     22 C         137.9423  139.2671  165.2190 C.3     1  UNL1        0.1080
     23 C         137.9353  138.7486  166.6265 C.3     1  UNL1        0.1660
     24 O         137.1500  137.5171  166.9681 O.3     1  UNL1       -0.3771
     25 H         136.7094  137.1832  166.1711 H       1  UNL1        0.2109
     26 C         138.7135  139.4616  167.6923 C.ar    1  UNL1        0.0871
     27 C         140.0207  140.1156  167.3558 C.ar    1  UNL1        0.0217
     28 C         140.7990  140.8286  168.4216 C.ar    1  UNL1        0.0838
     29 C         140.2699  140.8876  169.8239 C.ar    1  UNL1        0.0914
     30 C         138.9627  140.2336  170.1605 C.ar    1  UNL1        0.1087
     31 N         138.1844  139.5206  169.0947 N.ar    1  UNL1       -0.2450
     32 C         142.1063  141.4827  168.0851 C.3     1  UNL1        0.4193
     33 F         143.4135  142.1366  167.7486 F       1  UNL1       -0.1658
     34 F         142.7868  140.1467  168.1324 F       1  UNL1       -0.1658
     35 F         141.4258  142.8185  168.0377 F       1  UNL1       -0.1658
     36 C         141.0481  141.6007  170.8898 C.1     1  UNL1        0.1019
     37 N         141.8264  142.3136  171.9556 N.1     1  UNL1       -0.1908
@<TRIPOS>BOND
     1    11    12    1
     2    12    13   ar
     3    13     8    1
     4     8     9    1
     5     8     7    1
     6     7     1    1
     7     1     2    1
     8     2     3    1
     9     3     4    1
    10     4    22    1
    11    22    23    1
    12    23    24    1
    13    23    26    1
    14    26    27   ar
    15    27    28   ar
    16    28    32    1
    17    32    33    1
    18    32    34    1
    19    32    35    1
    20    28    29   ar
    21    29    36    1
    22    36    37    3
    23    29    30   ar
    24    30    31   ar
    25     4     5    1
    26     5     6    1
    27    13    14   ar
    28    14    15   ar
    29    15    16   ar
    30    16    17   ar
    31    17    18    1
    32    18    19    1
    33    19    20    1
    34    20    21    2
    35    17    12   ar
    36     6     1    1
    37    20    16    1
    38    31    26   ar
    39     9    10    1
    40    24    25    1
@<TRIPOS>MOLECULE
*****
 37 40 0 0 0
SMALL
GASTEIGER

@<TRIPOS>ATOM
      1 N         138.6474  143.4442  162.9019 N.3     1  UNL1       -0.2680
      2 C         138.2368  143.1722  164.3187 C.3     1  UNL1        0.0897
      3 C         138.1108  141.7588  164.8047 C.3     1  UNL1        0.0897
      4 N         138.3954  140.6174  163.8741 N.3     1  UNL1       -0.2679
      5 C         138.8061  140.8894  162.4572 C.3     1  UNL1        0.0897
      6 C         138.9321  142.3028  161.9711 C.3     1  UNL1        0.0897
      7 C         138.7735  144.8576  162.4157 C.3     1  UNL1        0.1064
      8 C         140.1092  145.5399  162.4314 C.3     1  UNL1        0.1483
      9 O         140.1955  147.0245  162.2352 O.3     1  UNL1       -0.3786
     10 H         141.1241  147.3022  162.2731 H       1  UNL1        0.2108
     11 C         141.5938  144.4252  160.0748 C.3     1  UNL1        0.0306
     12 C         142.1011  144.1801  161.4650 C.ar    1  UNL1       -0.0238
     13 C         141.3588  144.7374  162.6434 C.ar    1  UNL1        0.0015
     14 C         141.8660  144.4924  164.0335 C.ar    1  UNL1       -0.0020
     15 C         143.1155  143.6900  164.2454 C.ar    1  UNL1        0.0060
     16 C         143.8578  143.1327  163.0672 C.ar    1  UNL1        0.0748
     17 C         143.3506  143.3778  161.6769 C.ar    1  UNL1        0.0233
     18 C         144.2875  142.7069  160.7167 C.3     1  UNL1        0.2352
     19 O         145.3738  142.0472  161.5135 O.3     1  UNL1       -0.4404
     20 C         145.1082  142.3104  162.9661 C.2     1  UNL1        0.3413
     21 O         145.9460  141.8347  164.1158 O.2     1  UNL1       -0.2449
     22 C         138.2694  139.2040  164.3602 C.3     1  UNL1        0.1080
     23 C         139.2910  138.6413  165.3035 C.3     1  UNL1        0.1660
     24 O         140.0281  137.3842  164.9480 O.3     1  UNL1       -0.3771
     25 H         139.7272  137.0668  164.0822 H       1  UNL1        0.2109
     26 C         139.5756  139.3357  166.6022 C.ar    1  UNL1        0.0871
     27 C         140.8353  140.1334  166.7659 C.ar    1  UNL1        0.0217
     28 C         141.1199  140.8279  168.0646 C.ar    1  UNL1        0.0838
     29 C         140.1448  140.7247  169.1997 C.ar    1  UNL1        0.0914
     30 C         138.8850  139.9271  169.0360 C.ar    1  UNL1        0.1087
     31 N         138.6004  139.2326  167.7373 N.ar    1  UNL1       -0.2450
     32 C         142.3797  141.6256  168.2283 C.3     1  UNL1        0.4193
     33 F         143.6393  142.4232  168.3920 F       1  UNL1       -0.1658
     34 F         141.6935  142.8277  167.6505 F       1  UNL1       -0.1658
     35 F         143.0658  140.4234  168.8061 F       1  UNL1       -0.1658
     36 C         140.4293  141.4192  170.4985 C.1     1  UNL1        0.1019
     37 N         140.7138  142.1136  171.7973 N.1     1  UNL1       -0.1908
@<TRIPOS>BOND
     1    11    12    1
     2    12    13   ar
     3    13     8    1
     4     8     9    1
     5     8     7    1
     6     7     1    1
     7     1     2    1
     8     2     3    1
     9     3     4    1
    10     4    22    1
    11    22    23    1
    12    23    24    1
    13    23    26    1
    14    26    27   ar
    15    27    28   ar
    16    28    32    1
    17    32    33    1
    18    32    34    1
    19    32    35    1
    20    28    29   ar
    21    29    36    1
    22    36    37    3
    23    29    30   ar
    24    30    31   ar
    25     4     5    1
    26     5     6    1
    27    13    14   ar
    28    14    15   ar
    29    15    16   ar
    30    16    17   ar
    31    17    18    1
    32    18    19    1
    33    19    20    1
    34    20    21    2
    35    17    12   ar
    36     6     1    1
    37    20    16    1
    38    31    26   ar
    39     9    10    1
    40    24    25    1
@<TRIPOS>MOLECULE
*****
 37 40 0 0 0
SMALL
GASTEIGER

@<TRIPOS>ATOM
      1 N         139.8820  138.4990  162.2623 N.3     1  UNL1       -0.2680
      2 C         141.0927  139.1975  161.7178 C.3     1  UNL1        0.0897
      3 C         142.3305  139.3163  162.5566 C.3     1  UNL1        0.0897
      4 N         142.3577  138.7367  163.9398 N.3     1  UNL1       -0.2679
      5 C         141.1471  138.0383  164.4843 C.3     1  UNL1        0.0897
      6 C         139.9092  137.9194  163.6456 C.3     1  UNL1        0.0897
      7 C         138.6441  138.3802  161.4236 C.3     1  UNL1        0.1064
      8 C         137.7257  139.5563  161.2712 C.3     1  UNL1        0.1483
      9 O         136.5738  139.4891  160.3127 O.3     1  UNL1       -0.3786
     10 H         136.0844  140.3263  160.3362 H       1  UNL1        0.2108
     11 C         139.0780  141.9237  160.0195 C.3     1  UNL1        0.0306
     12 C         138.6353  141.9833  161.4515 C.ar    1  UNL1       -0.0238
     13 C         137.9591  140.7996  162.0774 C.ar    1  UNL1        0.0015
     14 C         137.5163  140.8592  163.5092 C.ar    1  UNL1       -0.0020
     15 C         137.7497  142.1024  164.3153 C.ar    1  UNL1        0.0060
     16 C         138.4259  143.2861  163.6895 C.ar    1  UNL1        0.0748
     17 C         138.8687  143.2266  162.2576 C.ar    1  UNL1        0.0233
     18 C         139.5049  144.5408  161.9141 C.3     1  UNL1        0.2352
     19 O         139.4554  145.4125  163.1337 O.3     1  UNL1       -0.4404
     20 C         138.7885  144.6372  164.2310 C.2     1  UNL1        0.3413
     21 O         138.5297  145.1268  165.6250 O.2     1  UNL1       -0.2449
     22 C         143.5956  138.8556  164.7785 C.3     1  UNL1        0.1080
     23 C         143.4988  138.7811  166.2735 C.3     1  UNL1        0.1660
     24 O         144.0968  137.6171  167.0067 O.3     1  UNL1       -0.3771
     25 H         144.5043  137.0090  166.3703 H       1  UNL1        0.2109
     26 C         142.8040  139.8705  167.0353 C.ar    1  UNL1        0.0871
     27 C         141.6819  139.5327  167.9716 C.ar    1  UNL1        0.0217
     28 C         140.9870  140.6221  168.7335 C.ar    1  UNL1        0.0838
     29 C         141.4143  142.0493  168.5589 C.ar    1  UNL1        0.0914
     30 C         142.5364  142.3871  167.6226 C.ar    1  UNL1        0.1087
     31 N         143.2313  141.2977  166.8608 N.ar    1  UNL1       -0.2450
     32 C         139.8649  140.2843  169.6698 C.3     1  UNL1        0.4193
     33 F         138.7428  139.9466  170.6061 F       1  UNL1       -0.1658
     34 F         138.9077  140.2634  168.5151 F       1  UNL1       -0.1658
     35 F         140.8221  140.3053  170.8245 F       1  UNL1       -0.1658
     36 C         140.7195  143.1388  169.3207 C.1     1  UNL1        0.1019
     37 N         140.0246  144.2283  170.0825 N.1     1  UNL1       -0.1908
@<TRIPOS>BOND
     1    11    12    1
     2    12    13   ar
     3    13     8    1
     4     8     9    1
     5     8     7    1
     6     7     1    1
     7     1     2    1
     8     2     3    1
     9     3     4    1
    10     4    22    1
    11    22    23    1
    12    23    24    1
    13    23    26    1
    14    26    27   ar
    15    27    28   ar
    16    28    32    1
    17    32    33    1
    18    32    34    1
    19    32    35    1
    20    28    29   ar
    21    29    36    1
    22    36    37    3
    23    29    30   ar
    24    30    31   ar
    25     4     5    1
    26     5     6    1
    27    13    14   ar
    28    14    15   ar
    29    15    16   ar
    30    16    17   ar
    31    17    18    1
    32    18    19    1
    33    19    20    1
    34    20    21    2
    35    17    12   ar
    36     6     1    1
    37    20    16    1
    38    31    26   ar
    39     9    10    1
    40    24    25    1
@<TRIPOS>MOLECULE
*****
 37 40 0 0 0
SMALL
GASTEIGER

@<TRIPOS>ATOM
      1 N         139.5640  142.9502  160.8880 N.3     1  UNL1       -0.2680
      2 C         138.4975  143.4291  161.8277 C.3     1  UNL1        0.0897
      3 C         137.9101  142.4883  162.8375 C.3     1  UNL1        0.0897
      4 N         138.3893  141.0686  162.9077 N.3     1  UNL1       -0.2679
      5 C         139.4558  140.5897  161.9679 C.3     1  UNL1        0.0897
      6 C         140.0432  141.5305  160.9580 C.3     1  UNL1        0.0897
      7 C         140.1515  143.8910  159.8781 C.3     1  UNL1        0.1064
      8 C         141.3685  144.6971  160.2230 C.3     1  UNL1        0.1483
      9 O         141.7975  145.8258  159.3331 O.3     1  UNL1       -0.3786
     10 H         142.5957  146.2393  159.6974 H       1  UNL1        0.2108
     11 C         143.6326  142.7335  160.0872 C.3     1  UNL1        0.0306
     12 C         143.2887  143.3927  161.3900 C.ar    1  UNL1       -0.0238
     13 C         142.1566  144.3745  161.4580 C.ar    1  UNL1        0.0015
     14 C         141.8127  145.0337  162.7606 C.ar    1  UNL1       -0.0020
     15 C         142.6007  144.7111  163.9955 C.ar    1  UNL1        0.0060
     16 C         143.7327  143.7293  163.9276 C.ar    1  UNL1        0.0748
     17 C         144.0767  143.0701  162.6249 C.ar    1  UNL1        0.0233
     18 C         145.2373  142.1502  162.8630 C.3     1  UNL1        0.2352
     19 O         145.6106  142.2408  164.3130 O.3     1  UNL1       -0.4404
     20 C         144.6808  143.2168  164.9710 C.2     1  UNL1        0.3413
     21 O         144.6962  143.6110  166.4181 O.2     1  UNL1       -0.2449
     22 C         137.8018  140.1278  163.9175 C.3     1  UNL1        0.1080
     23 C         138.6849  139.4824  164.9441 C.3     1  UNL1        0.1660
     24 O         138.9630  138.0101  164.8750 O.3     1  UNL1       -0.3771
     25 H         138.4992  137.6288  164.1131 H       1  UNL1        0.2109
     26 C         139.2897  140.3094  166.0396 C.ar    1  UNL1        0.0871
     27 C         139.2561  139.8174  167.4563 C.ar    1  UNL1        0.0217
     28 C         139.8609  140.6443  168.5519 C.ar    1  UNL1        0.0838
     29 C         140.4994  141.9631  168.2309 C.ar    1  UNL1        0.0914
     30 C         140.5330  142.4551  166.8142 C.ar    1  UNL1        0.1087
     31 N         139.9282  141.6282  165.7186 N.ar    1  UNL1       -0.2450
     32 C         139.8274  140.1524  169.9686 C.3     1  UNL1        0.4193
     33 F         139.7939  139.6605  171.3852 F       1  UNL1       -0.1658
     34 F         141.1276  139.4368  169.7508 F       1  UNL1       -0.1658
     35 F         138.5273  140.8680  170.1862 F       1  UNL1       -0.1658
     36 C         141.1043  142.7901  169.3265 C.1     1  UNL1        0.1019
     37 N         141.7092  143.6171  170.4220 N.1     1  UNL1       -0.1908
@<TRIPOS>BOND
     1    11    12    1
     2    12    13   ar
     3    13     8    1
     4     8     9    1
     5     8     7    1
     6     7     1    1
     7     1     2    1
     8     2     3    1
     9     3     4    1
    10     4    22    1
    11    22    23    1
    12    23    24    1
    13    23    26    1
    14    26    27   ar
    15    27    28   ar
    16    28    32    1
    17    32    33    1
    18    32    34    1
    19    32    35    1
    20    28    29   ar
    21    29    36    1
    22    36    37    3
    23    29    30   ar
    24    30    31   ar
    25     4     5    1
    26     5     6    1
    27    13    14   ar
    28    14    15   ar
    29    15    16   ar
    30    16    17   ar
    31    17    18    1
    32    18    19    1
    33    19    20    1
    34    20    21    2
    35    17    12   ar
    36     6     1    1
    37    20    16    1
    38    31    26   ar
    39     9    10    1
    40    24    25    1
@<TRIPOS>MOLECULE
*****
 37 40 0 0 0
SMALL
GASTEIGER

@<TRIPOS>ATOM
      1 N         139.2652  140.1251  161.3869 N.3     1  UNL1       -0.2680
      2 C         140.4433  139.2835  160.9948 C.3     1  UNL1        0.0897
      3 C         141.4561  139.8163  160.0251 C.3     1  UNL1        0.0897
      4 N         141.2907  141.1907  159.4475 N.3     1  UNL1       -0.2679
      5 C         140.1126  142.0323  159.8395 C.3     1  UNL1        0.0897
      6 C         139.0998  141.4996  160.8093 C.3     1  UNL1        0.0897
      7 C         138.2524  139.5923  162.3566 C.3     1  UNL1        0.1064
      8 C         137.7377  140.4681  163.4602 C.3     1  UNL1        0.1483
      9 O         136.5974  141.4078  163.2020 O.3     1  UNL1       -0.3786
     10 H         136.3906  141.8961  164.0143 H       1  UNL1        0.2108
     11 C         139.6700  142.5939  164.3246 C.3     1  UNL1        0.0306
     12 C         139.3294  141.4671  165.2543 C.ar    1  UNL1       -0.0238
     13 C         138.3632  140.4041  164.8222 C.ar    1  UNL1        0.0015
     14 C         138.0226  139.2773  165.7518 C.ar    1  UNL1       -0.0020
     15 C         138.6481  139.2134  167.1136 C.ar    1  UNL1        0.0060
     16 C         139.6143  140.2763  167.5458 C.ar    1  UNL1        0.0748
     17 C         139.9549  141.4031  166.6162 C.ar    1  UNL1        0.0233
     18 C         140.9342  142.2998  167.3140 C.3     1  UNL1        0.2352
     19 O         141.1987  141.7272  168.6749 O.3     1  UNL1       -0.4404
     20 C         140.3830  140.4766  168.8182 C.2     1  UNL1        0.3413
     21 O         140.3430  139.5831  170.0224 O.2     1  UNL1       -0.2449
     22 C         142.3035  141.7235  158.4777 C.3     1  UNL1        0.1080
     23 C         143.4550  142.5477  158.9728 C.3     1  UNL1        0.1660
     24 O         144.4074  143.1694  157.9949 O.3     1  UNL1       -0.3771
     25 H         144.1373  142.9421  157.0914 H       1  UNL1        0.2109
     26 C         143.6539  142.7500  160.4457 C.ar    1  UNL1        0.0871
     27 C         144.2809  141.6675  161.2734 C.ar    1  UNL1        0.0217
     28 C         144.4799  141.8698  162.7464 C.ar    1  UNL1        0.0838
     29 C         144.0518  143.1545  163.3915 C.ar    1  UNL1        0.0914
     30 C         143.4248  144.2370  162.5638 C.ar    1  UNL1        0.1087
     31 N         143.2258  144.0347  161.0909 N.ar    1  UNL1       -0.2450
     32 C         145.1069  140.7874  163.5742 C.3     1  UNL1        0.4193
     33 F         145.7338  139.7050  164.4019 F       1  UNL1       -0.1658
     34 F         143.7939  140.0637  163.6222 F       1  UNL1       -0.1658
     35 F         146.4198  141.5111  163.5260 F       1  UNL1       -0.1658
     36 C         144.2507  143.3569  164.8645 C.1     1  UNL1        0.1019
     37 N         144.4497  143.5593  166.3374 N.1     1  UNL1       -0.1908
@<TRIPOS>BOND
     1    11    12    1
     2    12    13   ar
     3    13     8    1
     4     8     9    1
     5     8     7    1
     6     7     1    1
     7     1     2    1
     8     2     3    1
     9     3     4    1
    10     4    22    1
    11    22    23    1
    12    23    24    1
    13    23    26    1
    14    26    27   ar
    15    27    28   ar
    16    28    32    1
    17    32    33    1
    18    32    34    1
    19    32    35    1
    20    28    29   ar
    21    29    36    1
    22    36    37    3
    23    29    30   ar
    24    30    31   ar
    25     4     5    1
    26     5     6    1
    27    13    14   ar
    28    14    15   ar
    29    15    16   ar
    30    16    17   ar
    31    17    18    1
    32    18    19    1
    33    19    20    1
    34    20    21    2
    35    17    12   ar
    36     6     1    1
    37    20    16    1
    38    31    26   ar
    39     9    10    1
    40    24    25    1
@<TRIPOS>MOLECULE
*****
 37 40 0 0 0
SMALL
GASTEIGER

@<TRIPOS>ATOM
      1 N         140.9699  138.1444  164.3670 N.3     1  UNL1       -0.2680
      2 C         140.9885  138.3252  162.8780 C.3     1  UNL1        0.0897
      3 C         142.1851  138.9371  162.2119 C.3     1  UNL1        0.0897
      4 N         143.3630  139.3680  163.0345 N.3     1  UNL1       -0.2679
      5 C         143.3444  139.1872  164.5235 C.3     1  UNL1        0.0897
      6 C         142.1478  138.5754  165.1898 C.3     1  UNL1        0.0897
      7 C         139.7733  137.5326  165.0333 C.3     1  UNL1        0.1064
      8 C         138.6805  138.4112  165.5659 C.3     1  UNL1        0.1483
      9 O         137.7600  137.8992  166.6338 O.3     1  UNL1       -0.3786
     10 H         137.1162  138.5876  166.8631 H       1  UNL1        0.2108
     11 C         139.9103  140.7366  167.0083 C.3     1  UNL1        0.0306
     12 C         139.1231  140.9646  165.7519 C.ar    1  UNL1       -0.0238
     13 C         138.5082  139.8019  165.0307 C.ar    1  UNL1        0.0015
     14 C         137.7212  140.0298  163.7744 C.ar    1  UNL1       -0.0020
     15 C         137.5489  141.4204  163.2391 C.ar    1  UNL1        0.0060
     16 C         138.1637  142.5831  163.9603 C.ar    1  UNL1        0.0748
     17 C         138.9509  142.3552  165.2166 C.ar    1  UNL1        0.0233
     18 C         139.4371  143.6868  165.7070 C.3     1  UNL1        0.2352
     19 O         138.9505  144.7377  164.7537 O.3     1  UNL1       -0.4404
     20 C         138.1635  144.0556  163.6741 C.2     1  UNL1        0.3413
     21 O         137.4939  144.7279  162.5124 O.2     1  UNL1       -0.2449
     22 C         144.5595  139.9798  162.3683 C.3     1  UNL1        0.1080
     23 C         144.9082  141.4161  162.6245 C.3     1  UNL1        0.1660
     24 O         146.2915  141.7835  163.0733 O.3     1  UNL1       -0.3771
     25 H         146.8312  140.9809  163.1476 H       1  UNL1        0.2109
     26 C         143.8735  142.4849  162.4320 C.ar    1  UNL1        0.0871
     27 C         142.8398  142.3426  161.3544 C.ar    1  UNL1        0.0217
     28 C         141.8051  143.4113  161.1618 C.ar    1  UNL1        0.0838
     29 C         141.8041  144.6224  162.0469 C.ar    1  UNL1        0.0914
     30 C         142.8377  144.7647  163.1245 C.ar    1  UNL1        0.1087
     31 N         143.8725  143.6960  163.3171 N.ar    1  UNL1       -0.2450
     32 C         140.7714  143.2691  160.0842 C.3     1  UNL1        0.4193
     33 F         139.7377  143.1268  159.0067 F       1  UNL1       -0.1658
     34 F         139.8570  142.5790  161.0526 F       1  UNL1       -0.1658
     35 F         141.6858  143.9592  159.1160 F       1  UNL1       -0.1658
     36 C         140.7693  145.6913  161.8544 C.1     1  UNL1        0.1019
     37 N         139.7347  146.7601  161.6619 N.1     1  UNL1       -0.1908
@<TRIPOS>BOND
     1    11    12    1
     2    12    13   ar
     3    13     8    1
     4     8     9    1
     5     8     7    1
     6     7     1    1
     7     1     2    1
     8     2     3    1
     9     3     4    1
    10     4    22    1
    11    22    23    1
    12    23    24    1
    13    23    26    1
    14    26    27   ar
    15    27    28   ar
    16    28    32    1
    17    32    33    1
    18    32    34    1
    19    32    35    1
    20    28    29   ar
    21    29    36    1
    22    36    37    3
    23    29    30   ar
    24    30    31   ar
    25     4     5    1
    26     5     6    1
    27    13    14   ar
    28    14    15   ar
    29    15    16   ar
    30    16    17   ar
    31    17    18    1
    32    18    19    1
    33    19    20    1
    34    20    21    2
    35    17    12   ar
    36     6     1    1
    37    20    16    1
    38    31    26   ar
    39     9    10    1
    40    24    25    1
@<TRIPOS>MOLECULE
*****
 37 40 0 0 0
SMALL
GASTEIGER

@<TRIPOS>ATOM
      1 N         140.3979  137.7438  164.2431 N.3     1  UNL1       -0.2680
      2 C         141.6835  138.2085  164.8605 C.3     1  UNL1        0.0897
      3 C         142.8519  138.5574  163.9870 C.3     1  UNL1        0.0897
      4 N         142.7347  138.4417  162.4961 N.3     1  UNL1       -0.2679
      5 C         141.4491  137.9770  161.8786 C.3     1  UNL1        0.0897
      6 C         140.2806  137.6280  162.7521 C.3     1  UNL1        0.0897
      7 C         139.2294  137.3949  165.1165 C.3     1  UNL1        0.1064
      8 C         138.4747  138.4786  165.8278 C.3     1  UNL1        0.1483
      9 O         137.8083  138.1910  167.1405 O.3     1  UNL1       -0.3786
     10 H         137.3679  138.9932  167.4621 H       1  UNL1        0.2108
     11 C         139.8658  140.7869  167.1456 C.3     1  UNL1        0.0306
     12 C         139.0819  141.0041  165.8853 C.ar    1  UNL1       -0.0238
     13 C         138.3863  139.8500  165.2263 C.ar    1  UNL1        0.0015
     14 C         137.6025  140.0671  163.9661 C.ar    1  UNL1       -0.0020
     15 C         137.5142  141.4384  163.3646 C.ar    1  UNL1        0.0060
     16 C         138.2097  142.5925  164.0235 C.ar    1  UNL1        0.0748
     17 C         138.9936  142.3754  165.2838 C.ar    1  UNL1        0.0233
     18 C         139.5692  143.6950  165.7049 C.3     1  UNL1        0.2352
     19 O         139.1411  144.7277  164.7047 O.3     1  UNL1       -0.4404
     20 C         138.3009  144.0463  163.6656 C.2     1  UNL1        0.3413
     21 O         137.6637  144.7035  162.4772 O.2     1  UNL1       -0.2449
     22 C         143.9031  138.7907  161.6226 C.3     1  UNL1        0.1080
     23 C         143.7424  139.7961  160.5211 C.3     1  UNL1        0.1660
     24 O         144.2522  139.4882  159.1444 O.3     1  UNL1       -0.3771
     25 H         144.6547  138.6057  159.1386 H       1  UNL1        0.2109
     26 C         143.0718  141.1093  160.7963 C.ar    1  UNL1        0.0871
     27 C         143.5536  141.9760  161.9218 C.ar    1  UNL1        0.0217
     28 C         142.8831  143.2893  162.1971 C.ar    1  UNL1        0.0838
     29 C         141.7308  143.7358  161.3468 C.ar    1  UNL1        0.0914
     30 C         141.2490  142.8690  160.2214 C.ar    1  UNL1        0.1087
     31 N         141.9195  141.5558  159.9461 N.ar    1  UNL1       -0.2450
     32 C         143.3648  144.1561  163.3225 C.3     1  UNL1        0.4193
     33 F         143.8464  145.0228  164.4480 F       1  UNL1       -0.1658
     34 F         142.3312  143.5546  164.2280 F       1  UNL1       -0.1658
     35 F         144.3983  144.7575  162.4170 F       1  UNL1       -0.1658
     36 C         141.0602  145.0491  161.6220 C.1     1  UNL1        0.1019
     37 N         140.3895  146.3622  161.8973 N.1     1  UNL1       -0.1908
@<TRIPOS>BOND
     1    11    12    1
     2    12    13   ar
     3    13     8    1
     4     8     9    1
     5     8     7    1
     6     7     1    1
     7     1     2    1
     8     2     3    1
     9     3     4    1
    10     4    22    1
    11    22    23    1
    12    23    24    1
    13    23    26    1
    14    26    27   ar
    15    27    28   ar
    16    28    32    1
    17    32    33    1
    18    32    34    1
    19    32    35    1
    20    28    29   ar
    21    29    36    1
    22    36    37    3
    23    29    30   ar
    24    30    31   ar
    25     4     5    1
    26     5     6    1
    27    13    14   ar
    28    14    15   ar
    29    15    16   ar
    30    16    17   ar
    31    17    18    1
    32    18    19    1
    33    19    20    1
    34    20    21    2
    35    17    12   ar
    36     6     1    1
    37    20    16    1
    38    31    26   ar
    39     9    10    1
    40    24    25    1
@<TRIPOS>MOLECULE
*****
 37 40 0 0 0
SMALL
GASTEIGER

@<TRIPOS>ATOM
      1 N         138.3573  140.6853  163.8348 N.3     1  UNL1       -0.2680
      2 C         137.7895  142.0736  163.8506 C.3     1  UNL1        0.0897
      3 C         138.0301  142.9954  162.6920 C.3     1  UNL1        0.0897
      4 N         138.8385  142.5289  161.5176 N.3     1  UNL1       -0.2679
      5 C         139.4062  141.1406  161.5019 C.3     1  UNL1        0.0897
      6 C         139.1657  140.2188  162.6604 C.3     1  UNL1        0.0897
      7 C         138.1167  139.7634  164.9934 C.3     1  UNL1        0.1064
      8 C         139.2725  139.2734  165.8144 C.3     1  UNL1        0.1483
      9 O         140.0687  138.0876  165.3562 O.3     1  UNL1       -0.3786
     10 H         140.7737  137.9045  165.9968 H       1  UNL1        0.2108
     11 C         141.5824  141.1865  165.8835 C.3     1  UNL1        0.0306
     12 C         140.7870  140.9258  167.1283 C.ar    1  UNL1       -0.0238
     13 C         139.6320  139.9693  167.0938 C.ar    1  UNL1        0.0015
     14 C         138.8367  139.7086  168.3385 C.ar    1  UNL1       -0.0020
     15 C         139.1962  140.4044  169.6178 C.ar    1  UNL1        0.0060
     16 C         140.3511  141.3609  169.6523 C.ar    1  UNL1        0.0748
     17 C         141.1465  141.6216  168.4076 C.ar    1  UNL1        0.0233
     18 C         142.2239  142.6095  168.7443 C.3     1  UNL1        0.2352
     19 O         142.0944  142.9593  170.1972 O.3     1  UNL1       -0.4404
     20 C         140.9369  142.1876  170.7584 C.2     1  UNL1        0.3413
     21 O         140.4507  142.2345  172.1766 O.2     1  UNL1       -0.2449
     22 C         139.0790  143.4508  160.3591 C.3     1  UNL1        0.1080
     23 C         140.2029  144.4429  160.4107 C.3     1  UNL1        0.1660
     24 O         140.3310  145.4873  159.3417 O.3     1  UNL1       -0.3771
     25 H         139.6125  145.3816  158.6987 H       1  UNL1        0.2109
     26 C         141.1986  144.3906  161.5313 C.ar    1  UNL1        0.0871
     27 C         142.3324  143.4098  161.4819 C.ar    1  UNL1        0.0217
     28 C         143.3281  143.3574  162.6025 C.ar    1  UNL1        0.0838
     29 C         143.1901  144.2859  163.7725 C.ar    1  UNL1        0.0914
     30 C         142.0563  145.2668  163.8219 C.ar    1  UNL1        0.1087
     31 N         141.0605  145.3191  162.7013 N.ar    1  UNL1       -0.2450
     32 C         144.4620  142.3766  162.5532 C.3     1  UNL1        0.4193
     33 F         145.5957  141.3957  162.5039 F       1  UNL1       -0.1658
     34 F         143.6312  141.3786  163.3041 F       1  UNL1       -0.1658
     35 F         145.2926  143.3746  161.8023 F       1  UNL1       -0.1658
     36 C         144.1858  144.2336  164.8932 C.1     1  UNL1        0.1019
     37 N         145.1816  144.1813  166.0137 N.1     1  UNL1       -0.1908
@<TRIPOS>BOND
     1    11    12    1
     2    12    13   ar
     3    13     8    1
     4     8     9    1
     5     8     7    1
     6     7     1    1
     7     1     2    1
     8     2     3    1
     9     3     4    1
    10     4    22    1
    11    22    23    1
    12    23    24    1
    13    23    26    1
    14    26    27   ar
    15    27    28   ar
    16    28    32    1
    17    32    33    1
    18    32    34    1
    19    32    35    1
    20    28    29   ar
    21    29    36    1
    22    36    37    3
    23    29    30   ar
    24    30    31   ar
    25     4     5    1
    26     5     6    1
    27    13    14   ar
    28    14    15   ar
    29    15    16   ar
    30    16    17   ar
    31    17    18    1
    32    18    19    1
    33    19    20    1
    34    20    21    2
    35    17    12   ar
    36     6     1    1
    37    20    16    1
    38    31    26   ar
    39     9    10    1
    40    24    25    1
