@<TRIPOS>MOLECULE
*****
 32 35 0 0 0
SMALL
GASTEIGER

@<TRIPOS>ATOM
      1 N         143.4429  138.5367  167.2563 N.pl3   1  UNL1       -0.2820
      2 H         144.0080  137.8817  167.7262 H       1  UNL1        0.1551
      3 C         142.2693  137.9634  163.5087 C.ar    1  UNL1        0.0491
      4 C         142.2904  137.9301  165.0082 C.ar    1  UNL1        0.0487
      5 C         143.4218  138.5701  165.7568 C.ar    1  UNL1        0.1345
      6 N         144.5321  139.2434  165.0059 N.ar    1  UNL1       -0.2290
      7 C         144.5110  139.2768  163.5065 C.ar    1  UNL1        0.1016
      8 C         143.3796  138.6368  162.7579 C.ar    1  UNL1        0.0354
      9 C         143.3585  138.6701  161.2584 C.ar    1  UNL1        0.0423
     10 C         143.8188  139.8073  160.3952 C.ar    1  UNL1        0.1217
     11 N         143.6183  139.4121  158.9622 N.ar    1  UNL1       -0.1676
     12 N         143.0339  138.0307  158.9396 N.ar    1  UNL1       -0.2473
     13 C         142.6735  137.2458  157.7133 C.3     1  UNL1        0.1538
     14 C         142.8734  137.5722  160.3588 C.ar    1  UNL1        0.0968
     15 C         139.7195  137.6195  163.1479 C.3     1  UNL1        0.1085
     16 N         141.1379  137.3235  162.7602 N.pl3   1  UNL1       -0.3312
     17 H         141.3263  136.7091  162.0143 H       1  UNL1        0.1469
     18 C         142.6028  139.5013  168.0398 C.ar    1  UNL1        0.1558
     19 C         142.3667  139.2731  169.5035 C.ar    1  UNL1        0.1342
     20 N         141.5267  140.2377  170.2870 N.ar    1  UNL1       -0.2263
     21 C         140.9228  141.4306  169.6068 C.ar    1  UNL1        0.2025
     22 C         141.1590  141.6588  168.1432 C.ar    1  UNL1        0.2543
     23 N         141.9990  140.6941  167.3597 N.ar    1  UNL1       -0.1931
     24 C         140.0828  142.3952  170.3903 C.1     1  UNL1        0.1246
     25 N         139.2428  143.3599  171.1738 N.1     1  UNL1       -0.1891
     26 O         140.5552  142.8516  167.4631 O.3     1  UNL1       -0.4610
     27 C         140.0225  142.7287  166.0663 C.3     1  UNL1        0.1849
     28 C         140.2836  143.6798  164.9361 C.3     1  UNL1        0.0623
     29 C         139.5576  143.1719  163.7258 C.3     1  UNL1        0.0760
     30 N         138.8477  141.9070  164.1079 N.3     1  UNL1       -0.2684
     31 C         137.9994  141.0640  163.2025 C.3     1  UNL1        0.0897
     32 C         139.1350  141.6331  165.5544 C.3     1  UNL1        0.1163
@<TRIPOS>BOND
     1    15    16    1
     2    16     3    1
     3     3     4   ar
     4     4     5   ar
     5     5     1    1
     6     1    18    1
     7    18    19   ar
     8    19    20   ar
     9    20    21   ar
    10    21    24    1
    11    24    25    3
    12    21    22   ar
    13    22    26    1
    14    27    26    1
    15    27    28    1
    16    28    29    1
    17    29    30    1
    18    30    31    1
    19    30    32    1
    20    22    23   ar
    21     5     6   ar
    22     6     7   ar
    23     7     8   ar
    24     8     9    1
    25     9    10   ar
    26    10    11   ar
    27    11    12   ar
    28    12    13    1
    29    12    14   ar
    30     8     3   ar
    31    14     9   ar
    32    23    18   ar
    33    32    27    1
    34    16    17    1
    35     1     2    1
@<TRIPOS>MOLECULE
*****
 32 35 0 0 0
SMALL
GASTEIGER

@<TRIPOS>ATOM
      1 N         143.3693  138.6734  167.0351 N.pl3   1  UNL1       -0.2820
      2 H         144.0412  138.0905  167.4570 H       1  UNL1        0.1551
      3 C         143.8874  139.3591  163.1606 C.ar    1  UNL1        0.0491
      4 C         144.0885  139.3997  164.6465 C.ar    1  UNL1        0.0487
      5 C         143.1681  138.6328  165.5492 C.ar    1  UNL1        0.1345
      6 N         142.0466  137.8253  164.9660 N.ar    1  UNL1       -0.2290
      7 C         141.8455  137.7847  163.4801 C.ar    1  UNL1        0.1016
      8 C         142.7659  138.5516  162.5774 C.ar    1  UNL1        0.0354
      9 C         142.5647  138.5110  161.0915 C.ar    1  UNL1        0.0423
     10 C         141.9015  139.5704  160.2622 C.ar    1  UNL1        0.1217
     11 N         141.9183  139.1180  158.8322 N.ar    1  UNL1       -0.1676
     12 N         142.5919  137.7788  158.7776 N.ar    1  UNL1       -0.2473
     13 C         142.8251  136.9588  157.5435 C.3     1  UNL1        0.1538
     14 C         142.9914  137.4037  160.1739 C.ar    1  UNL1        0.0968
     15 C         145.1579  141.5490  162.5777 C.3     1  UNL1        0.1085
     16 N         144.8077  140.1260  162.2579 N.pl3   1  UNL1       -0.3312
     17 H         145.1819  139.6953  161.4556 H       1  UNL1        0.1469
     18 C         142.5468  139.6022  167.8782 C.ar    1  UNL1        0.1558
     19 C         142.4095  139.3547  169.3513 C.ar    1  UNL1        0.1342
     20 N         141.5869  140.2835  170.1944 N.ar    1  UNL1       -0.2263
     21 C         140.9016  141.4597  169.5643 C.ar    1  UNL1        0.2025
     22 C         141.0389  141.7072  168.0913 C.ar    1  UNL1        0.2543
     23 N         141.8615  140.7784  167.2482 N.ar    1  UNL1       -0.1931
     24 C         140.0791  142.3885  170.4074 C.1     1  UNL1        0.1246
     25 N         139.2565  143.3173  171.2505 N.1     1  UNL1       -0.1891
     26 O         140.3536  142.8834  167.4612 O.3     1  UNL1       -0.4610
     27 C         140.0796  142.8903  165.9865 C.3     1  UNL1        0.1849
     28 C         140.8625  143.6372  164.9477 C.3     1  UNL1        0.0623
     29 C         140.2413  143.3600  163.6108 C.3     1  UNL1        0.0760
     30 N         139.0744  142.4417  163.8235 N.3     1  UNL1       -0.2684
     31 C         138.1668  141.9075  162.7553 C.3     1  UNL1        0.0897
     32 C         138.9745  142.1514  165.2917 C.3     1  UNL1        0.1163
@<TRIPOS>BOND
     1    15    16    1
     2    16     3    1
     3     3     4   ar
     4     4     5   ar
     5     5     1    1
     6     1    18    1
     7    18    19   ar
     8    19    20   ar
     9    20    21   ar
    10    21    24    1
    11    24    25    3
    12    21    22   ar
    13    22    26    1
    14    27    26    1
    15    27    28    1
    16    28    29    1
    17    29    30    1
    18    30    31    1
    19    30    32    1
    20    22    23   ar
    21     5     6   ar
    22     6     7   ar
    23     7     8   ar
    24     8     9    1
    25     9    10   ar
    26    10    11   ar
    27    11    12   ar
    28    12    13    1
    29    12    14   ar
    30     8     3   ar
    31    14     9   ar
    32    23    18   ar
    33    32    27    1
    34    16    17    1
    35     1     2    1
@<TRIPOS>MOLECULE
*****
 32 35 0 0 0
SMALL
GASTEIGER

@<TRIPOS>ATOM
      1 N         138.4972  139.0635  159.6068 N.pl3   1  UNL1       -0.2820
      2 H         137.6551  139.2603  159.1363 H       1  UNL1        0.1551
      3 C         137.9438  140.3102  163.3336 C.ar    1  UNL1        0.0491
      4 C         137.8904  140.2525  161.8357 C.ar    1  UNL1        0.0487
      5 C         138.5506  139.1212  161.1047 C.ar    1  UNL1        0.1345
      6 N         139.2642  138.0476  161.8717 N.ar    1  UNL1       -0.2290
      7 C         139.3175  138.1053  163.3696 C.ar    1  UNL1        0.1016
      8 C         138.6573  139.2366  164.1006 C.ar    1  UNL1        0.0354
      9 C         138.7107  139.2943  165.5986 C.ar    1  UNL1        0.0423
     10 C         137.7715  138.6025  166.5416 C.ar    1  UNL1        0.1217
     11 N         138.1931  138.9345  167.9423 N.ar    1  UNL1       -0.1676
     12 N         139.3928  139.8316  167.8650 N.ar    1  UNL1       -0.2473
     13 C         140.1412  140.4056  169.0314 C.3     1  UNL1        0.1538
     14 C         139.7127  140.0539  166.4165 C.ar    1  UNL1        0.0968
     15 C         138.0276  142.7241  164.2905 C.3     1  UNL1        0.1085
     16 N         137.2836  141.4415  164.0646 N.pl3   1  UNL1       -0.3312
     17 H         136.3619  141.3421  164.3961 H       1  UNL1        0.1469
     18 C         139.7269  138.7059  158.8257 C.ar    1  UNL1        0.1558
     19 C         139.6047  138.2489  157.4022 C.ar    1  UNL1        0.1342
     20 N         140.8344  137.8914  156.6211 N.ar    1  UNL1       -0.2263
     21 C         142.1862  137.9908  157.2636 C.ar    1  UNL1        0.2025
     22 C         142.3084  138.4478  158.6870 C.ar    1  UNL1        0.2543
     23 N         141.0787  138.8054  159.4680 N.ar    1  UNL1       -0.1931
     24 C         143.4159  137.6333  156.4825 C.1     1  UNL1        0.1246
     25 N         144.6456  137.2757  155.7014 N.1     1  UNL1       -0.1891
     26 O         143.6602  138.5473  159.3294 O.3     1  UNL1       -0.4610
     27 C         143.8018  139.1709  160.6863 C.3     1  UNL1        0.1849
     28 C         143.9508  140.6358  160.9722 C.3     1  UNL1        0.0623
     29 C         144.0602  140.8094  162.4581 C.3     1  UNL1        0.0760
     30 N         143.9789  139.4516  163.0905 N.3     1  UNL1       -0.2684
     31 C         144.0456  139.1580  164.5600 C.3     1  UNL1        0.0897
     32 C         143.8191  138.4390  161.9955 C.3     1  UNL1        0.1163
@<TRIPOS>BOND
     1    15    16    1
     2    16     3    1
     3     3     4   ar
     4     4     5   ar
     5     5     1    1
     6     1    18    1
     7    18    19   ar
     8    19    20   ar
     9    20    21   ar
    10    21    24    1
    11    24    25    3
    12    21    22   ar
    13    22    26    1
    14    27    26    1
    15    27    28    1
    16    28    29    1
    17    29    30    1
    18    30    31    1
    19    30    32    1
    20    22    23   ar
    21     5     6   ar
    22     6     7   ar
    23     7     8   ar
    24     8     9    1
    25     9    10   ar
    26    10    11   ar
    27    11    12   ar
    28    12    13    1
    29    12    14   ar
    30     8     3   ar
    31    14     9   ar
    32    23    18   ar
    33    32    27    1
    34    16    17    1
    35     1     2    1
@<TRIPOS>MOLECULE
*****
 32 35 0 0 0
SMALL
GASTEIGER

@<TRIPOS>ATOM
      1 N         139.4357  138.3361  159.8901 N.pl3   1  UNL1       -0.2820
      2 H         138.7323  137.8808  159.3733 H       1  UNL1        0.1551
      3 C         138.2559  139.8042  163.3834 C.ar    1  UNL1        0.0491
      4 C         138.4124  139.6214  161.9029 C.ar    1  UNL1        0.0487
      5 C         139.2792  138.5189  161.3708 C.ar    1  UNL1        0.1345
      6 N         139.9894  137.5992  162.3192 N.ar    1  UNL1       -0.2290
      7 C         139.8329  137.7820  163.7998 C.ar    1  UNL1        0.1016
      8 C         138.9661  138.8845  164.3318 C.ar    1  UNL1        0.0354
      9 C         138.8096  139.0673  165.8125 C.ar    1  UNL1        0.0423
     10 C         137.7503  138.4421  166.6709 C.ar    1  UNL1        0.1217
     11 N         137.9710  138.8957  168.0835 N.ar    1  UNL1       -0.1676
     12 N         139.1667  139.8014  168.0981 N.ar    1  UNL1       -0.2473
     13 C         139.7429  140.4816  169.3045 C.3     1  UNL1        0.1538
     14 C         139.6850  139.9074  166.6945 C.ar    1  UNL1        0.0968
     15 C         137.4871  142.2854  163.3327 C.3     1  UNL1        0.1085
     16 N         137.3891  140.9068  163.9155 N.pl3   1  UNL1       -0.3312
     17 H         136.7559  140.7255  164.6472 H       1  UNL1        0.1469
     18 C         140.6639  138.8471  159.1971 C.ar    1  UNL1        0.1558
     19 C         141.1035  140.2670  159.3997 C.ar    1  UNL1        0.1342
     20 N         142.3318  140.7780  158.7067 N.ar    1  UNL1       -0.2263
     21 C         143.1204  139.8692  157.8110 C.ar    1  UNL1        0.2025
     22 C         142.6808  138.4494  157.6084 C.ar    1  UNL1        0.2543
     23 N         141.4526  137.9384  158.3014 N.ar    1  UNL1       -0.1931
     24 C         144.3486  140.3802  157.1179 C.1     1  UNL1        0.1246
     25 N         145.5769  140.8912  156.4249 N.1     1  UNL1       -0.1891
     26 O         143.4694  137.5406  156.7127 O.3     1  UNL1       -0.4610
     27 C         142.9646  136.1604  156.4125 C.3     1  UNL1        0.1849
     28 C         141.8906  135.8096  155.4259 C.3     1  UNL1        0.0623
     29 C         141.7073  134.3211  155.4499 C.3     1  UNL1        0.0760
     30 N         142.6681  133.7519  156.4514 N.3     1  UNL1       -0.2684
     31 C         142.8244  132.3007  156.7973 C.3     1  UNL1        0.0897
     32 C         143.4451  134.8887  157.0463 C.3     1  UNL1        0.1163
@<TRIPOS>BOND
     1    15    16    1
     2    16     3    1
     3     3     4   ar
     4     4     5   ar
     5     5     1    1
     6     1    18    1
     7    18    19   ar
     8    19    20   ar
     9    20    21   ar
    10    21    24    1
    11    24    25    3
    12    21    22   ar
    13    22    26    1
    14    27    26    1
    15    27    28    1
    16    28    29    1
    17    29    30    1
    18    30    31    1
    19    30    32    1
    20    22    23   ar
    21     5     6   ar
    22     6     7   ar
    23     7     8   ar
    24     8     9    1
    25     9    10   ar
    26    10    11   ar
    27    11    12   ar
    28    12    13    1
    29    12    14   ar
    30     8     3   ar
    31    14     9   ar
    32    23    18   ar
    33    32    27    1
    34    16    17    1
    35     1     2    1
@<TRIPOS>MOLECULE
*****
 32 35 0 0 0
SMALL
GASTEIGER

@<TRIPOS>ATOM
      1 N         142.6988  142.6571  165.7502 N.pl3   1  UNL1       -0.2820
      2 H         143.6352  142.8373  165.9950 H       1  UNL1        0.1551
      3 C         140.4568  144.1515  162.8364 C.ar    1  UNL1        0.0491
      4 C         140.9520  143.8092  164.2103 C.ar    1  UNL1        0.0487
      5 C         142.2036  142.9994  164.3762 C.ar    1  UNL1        0.1345
      6 N         142.9601  142.5318  163.1683 N.ar    1  UNL1       -0.2290
      7 C         142.4648  142.8741  161.7944 C.ar    1  UNL1        0.1016
      8 C         141.2132  143.6840  161.6285 C.ar    1  UNL1        0.0354
      9 C         140.7180  144.0262  160.2545 C.ar    1  UNL1        0.0423
     10 C         139.8131  143.1814  159.4076 C.ar    1  UNL1        0.1217
     11 N         139.5766  143.9065  158.1160 N.ar    1  UNL1       -0.1676
     12 N         140.3353  145.1995  158.1647 N.ar    1  UNL1       -0.2473
     13 C         140.3807  146.2365  157.0818 C.3     1  UNL1        0.1538
     14 C         141.0407  145.2735  159.4864 C.ar    1  UNL1        0.0968
     15 C         137.8722  144.3581  163.0009 C.3     1  UNL1        0.1085
     16 N         139.2051  144.9613  162.6705 N.pl3   1  UNL1       -0.3312
     17 H         139.2585  145.8889  162.3448 H       1  UNL1        0.1469
     18 C         141.7673  142.0402  166.7511 C.ar    1  UNL1        0.1558
     19 C         141.9154  142.3591  168.2093 C.ar    1  UNL1        0.1342
     20 N         140.9838  141.7422  169.2102 N.ar    1  UNL1       -0.2263
     21 C         139.9043  140.8066  168.7528 C.ar    1  UNL1        0.2025
     22 C         139.7563  140.4878  167.2946 C.ar    1  UNL1        0.2543
     23 N         140.6878  141.1046  166.2937 N.ar    1  UNL1       -0.1931
     24 C         138.9727  140.1897  169.7537 C.1     1  UNL1        0.1246
     25 N         138.0412  139.5729  170.7546 N.1     1  UNL1       -0.1891
     26 O         138.6767  139.5521  166.8372 O.3     1  UNL1       -0.4610
     27 C         138.6618  139.0595  165.4205 C.3     1  UNL1        0.1849
     28 C         139.1965  137.7434  164.9389 C.3     1  UNL1        0.0623
     29 C         138.9747  137.6671  163.4574 C.3     1  UNL1        0.0760
     30 N         138.3028  138.9360  163.0233 N.3     1  UNL1       -0.2684
     31 C         137.8957  139.2834  161.6220 C.3     1  UNL1        0.0897
     32 C         138.1094  139.7966  164.2366 C.3     1  UNL1        0.1163
@<TRIPOS>BOND
     1    15    16    1
     2    16     3    1
     3     3     4   ar
     4     4     5   ar
     5     5     1    1
     6     1    18    1
     7    18    19   ar
     8    19    20   ar
     9    20    21   ar
    10    21    24    1
    11    24    25    3
    12    21    22   ar
    13    22    26    1
    14    27    26    1
    15    27    28    1
    16    28    29    1
    17    29    30    1
    18    30    31    1
    19    30    32    1
    20    22    23   ar
    21     5     6   ar
    22     6     7   ar
    23     7     8   ar
    24     8     9    1
    25     9    10   ar
    26    10    11   ar
    27    11    12   ar
    28    12    13    1
    29    12    14   ar
    30     8     3   ar
    31    14     9   ar
    32    23    18   ar
    33    32    27    1
    34    16    17    1
    35     1     2    1
@<TRIPOS>MOLECULE
*****
 32 35 0 0 0
SMALL
GASTEIGER

@<TRIPOS>ATOM
      1 N         138.7115  137.5592  164.0782 N.pl3   1  UNL1       -0.2820
      2 H         137.9862  136.8955  164.0264 H       1  UNL1        0.1551
      3 C         139.8505  138.6886  160.4482 C.ar    1  UNL1        0.0491
      4 C         138.9848  138.4286  161.6452 C.ar    1  UNL1        0.0487
      5 C         139.5773  137.8191  162.8811 C.ar    1  UNL1        0.1345
      6 N         141.0354  137.4695  162.9200 N.ar    1  UNL1       -0.2290
      7 C         141.9011  137.7295  161.7230 C.ar    1  UNL1        0.1016
      8 C         141.3086  138.3390  160.4871 C.ar    1  UNL1        0.0354
      9 C         142.1744  138.5989  159.2900 C.ar    1  UNL1        0.0423
     10 C         143.1840  139.7000  159.1544 C.ar    1  UNL1        0.1217
     11 N         143.8161  139.5849  157.7990 N.ar    1  UNL1       -0.1676
     12 N         143.1972  138.4127  157.0968 N.ar    1  UNL1       -0.2473
     13 C         143.5338  137.9340  155.7157 C.3     1  UNL1        0.1538
     14 C         142.1826  137.8034  158.0183 C.ar    1  UNL1        0.0968
     15 C         138.0783  140.2181  159.3212 C.3     1  UNL1        0.1085
     16 N         139.2580  139.2981  159.2123 N.pl3   1  UNL1       -0.3312
     17 H         139.6435  139.0943  158.3296 H       1  UNL1        0.1469
     18 C         138.9508  138.3105  165.3543 C.ar    1  UNL1        0.1558
     19 C         137.9192  138.2874  166.4430 C.ar    1  UNL1        0.1342
     20 N         138.1586  139.0387  167.7190 N.ar    1  UNL1       -0.2263
     21 C         139.4296  139.8130  167.9063 C.ar    1  UNL1        0.2025
     22 C         140.4611  139.8361  166.8176 C.ar    1  UNL1        0.2543
     23 N         140.2218  139.0848  165.5416 N.ar    1  UNL1       -0.1931
     24 C         139.6690  140.5643  169.1824 C.1     1  UNL1        0.1246
     25 N         139.9083  141.3156  170.4584 N.1     1  UNL1       -0.1891
     26 O         141.7322  140.6104  167.0049 O.3     1  UNL1       -0.4610
     27 C         142.8735  140.4207  166.0504 C.3     1  UNL1        0.1849
     28 C         143.4914  139.1095  165.6643 C.3     1  UNL1        0.0623
     29 C         144.5972  139.3873  164.6896 C.3     1  UNL1        0.0760
     30 N         144.6628  140.8702  164.4734 N.3     1  UNL1       -0.2684
     31 C         145.6248  141.5884  163.5740 C.3     1  UNL1        0.0897
     32 C         143.5975  141.5088  165.3144 C.3     1  UNL1        0.1163
@<TRIPOS>BOND
     1    15    16    1
     2    16     3    1
     3     3     4   ar
     4     4     5   ar
     5     5     1    1
     6     1    18    1
     7    18    19   ar
     8    19    20   ar
     9    20    21   ar
    10    21    24    1
    11    24    25    3
    12    21    22   ar
    13    22    26    1
    14    27    26    1
    15    27    28    1
    16    28    29    1
    17    29    30    1
    18    30    31    1
    19    30    32    1
    20    22    23   ar
    21     5     6   ar
    22     6     7   ar
    23     7     8   ar
    24     8     9    1
    25     9    10   ar
    26    10    11   ar
    27    11    12   ar
    28    12    13    1
    29    12    14   ar
    30     8     3   ar
    31    14     9   ar
    32    23    18   ar
    33    32    27    1
    34    16    17    1
    35     1     2    1
@<TRIPOS>MOLECULE
*****
 32 35 0 0 0
SMALL
GASTEIGER

@<TRIPOS>ATOM
      1 N         139.1262  137.9675  160.8757 N.pl3   1  UNL1       -0.2820
      2 H         138.4078  137.4428  160.4539 H       1  UNL1        0.1551
      3 C         138.3054  139.9148  164.2349 C.ar    1  UNL1        0.0491
      4 C         138.3820  139.5756  162.7758 C.ar    1  UNL1        0.0487
      5 C         139.0496  138.3067  162.3349 C.ar    1  UNL1        0.1345
      6 N         139.6405  137.3772  163.3530 N.ar    1  UNL1       -0.2290
      7 C         139.5639  137.7164  164.8121 C.ar    1  UNL1        0.1016
      8 C         138.8963  138.9853  165.2530 C.ar    1  UNL1        0.0354
      9 C         138.8197  139.3245  166.7122 C.ar    1  UNL1        0.0423
     10 C         137.7715  138.8492  167.6741 C.ar    1  UNL1        0.1217
     11 N         138.0819  139.4295  169.0220 N.ar    1  UNL1       -0.1676
     12 N         139.3220  140.2636  168.8932 N.ar    1  UNL1       -0.2473
     13 C         139.9889  141.0283  169.9979 C.3     1  UNL1        0.1538
     14 C         139.7780  140.1987  167.4657 C.ar    1  UNL1        0.0968
     15 C         137.5234  142.3398  163.7271 C.3     1  UNL1        0.1085
     16 N         137.6378  141.1836  164.6759 N.pl3   1  UNL1       -0.3312
     17 H         137.2747  141.2576  165.5880 H       1  UNL1        0.1469
     18 C         140.2973  138.4277  160.0592 C.ar    1  UNL1        0.1558
     19 C         140.1766  138.5332  158.5677 C.ar    1  UNL1        0.1342
     20 N         141.3478  138.9934  157.7513 N.ar    1  UNL1       -0.2263
     21 C         142.6396  139.3480  158.4262 C.ar    1  UNL1        0.2025
     22 C         142.7602  139.2424  159.9176 C.ar    1  UNL1        0.2543
     23 N         141.5891  138.7823  160.7341 N.ar    1  UNL1       -0.1931
     24 C         143.8108  139.8082  157.6098 C.1     1  UNL1        0.1246
     25 N         144.9819  140.2683  156.7933 N.1     1  UNL1       -0.1891
     26 O         144.0521  139.5970  160.5926 O.3     1  UNL1       -0.4610
     27 C         144.1372  140.8232  161.4523 C.3     1  UNL1        0.1849
     28 C         145.0388  141.0088  162.6367 C.3     1  UNL1        0.0623
     29 C         144.7945  142.3794  163.1950 C.3     1  UNL1        0.0760
     30 N         143.7417  143.0408  162.3558 N.3     1  UNL1       -0.2684
     31 C         143.1917  144.4217  162.5581 C.3     1  UNL1        0.0897
     32 C         143.3355  142.0790  161.2788 C.3     1  UNL1        0.1163
@<TRIPOS>BOND
     1    15    16    1
     2    16     3    1
     3     3     4   ar
     4     4     5   ar
     5     5     1    1
     6     1    18    1
     7    18    19   ar
     8    19    20   ar
     9    20    21   ar
    10    21    24    1
    11    24    25    3
    12    21    22   ar
    13    22    26    1
    14    27    26    1
    15    27    28    1
    16    28    29    1
    17    29    30    1
    18    30    31    1
    19    30    32    1
    20    22    23   ar
    21     5     6   ar
    22     6     7   ar
    23     7     8   ar
    24     8     9    1
    25     9    10   ar
    26    10    11   ar
    27    11    12   ar
    28    12    13    1
    29    12    14   ar
    30     8     3   ar
    31    14     9   ar
    32    23    18   ar
    33    32    27    1
    34    16    17    1
    35     1     2    1
@<TRIPOS>MOLECULE
*****
 32 35 0 0 0
SMALL
GASTEIGER

@<TRIPOS>ATOM
      1 N         139.5511  143.3339  165.8142 N.pl3   1  UNL1       -0.2820
      2 H         138.6942  143.7381  166.0816 H       1  UNL1        0.1551
      3 C         141.9313  144.3397  162.8021 C.ar    1  UNL1        0.0491
      4 C         141.4146  144.1478  164.1971 C.ar    1  UNL1        0.0487
      5 C         140.0678  143.5258  164.4191 C.ar    1  UNL1        0.1345
      6 N         139.2378  143.0956  163.2460 N.ar    1  UNL1       -0.2290
      7 C         139.7546  143.2875  161.8510 C.ar    1  UNL1        0.1016
      8 C         141.1013  143.9096  161.6290 C.ar    1  UNL1        0.0354
      9 C         141.6181  144.1015  160.2339 C.ar    1  UNL1        0.0423
     10 C         142.5810  143.2009  159.5187 C.ar    1  UNL1        0.1217
     11 N         142.8206  143.7705  158.1519 N.ar    1  UNL1       -0.1676
     12 N         142.0057  145.0232  158.0224 N.ar    1  UNL1       -0.2473
     13 C         141.9448  145.9147  156.8177 C.3     1  UNL1        0.1538
     14 C         141.2625  145.2277  159.3092 C.ar    1  UNL1        0.0968
     15 C         144.5074  144.1025  162.5617 C.3     1  UNL1        0.1085
     16 N         143.2781  144.9618  162.5801 N.pl3   1  UNL1       -0.3312
     17 H         143.3552  145.9341  162.4464 H       1  UNL1        0.1469
     18 C         140.3400  142.5261  166.8017 C.ar    1  UNL1        0.1558
     19 C         140.5472  143.0400  168.1956 C.ar    1  UNL1        0.1342
     20 N         141.3362  142.2322  169.1831 N.ar    1  UNL1       -0.2263
     21 C         141.9179  140.9107  168.7767 C.ar    1  UNL1        0.2025
     22 C         141.7107  140.3969  167.3827 C.ar    1  UNL1        0.2543
     23 N         140.9217  141.2046  166.3952 N.ar    1  UNL1       -0.1931
     24 C         142.7068  140.1029  169.7642 C.1     1  UNL1        0.1246
     25 N         143.4957  139.2952  170.7517 N.1     1  UNL1       -0.1891
     26 O         142.2924  139.0753  166.9763 O.3     1  UNL1       -0.4610
     27 C         142.3315  138.6867  165.5280 C.3     1  UNL1        0.1849
     28 C         141.2976  137.8758  164.8045 C.3     1  UNL1        0.0623
     29 C         141.7385  137.7286  163.3784 C.3     1  UNL1        0.0760
     30 N         143.0449  138.4487  163.2205 N.3     1  UNL1       -0.2684
     31 C         143.8444  138.5575  161.9560 C.3     1  UNL1        0.0897
     32 C         143.4114  139.0408  164.5490 C.3     1  UNL1        0.1163
@<TRIPOS>BOND
     1    15    16    1
     2    16     3    1
     3     3     4   ar
     4     4     5   ar
     5     5     1    1
     6     1    18    1
     7    18    19   ar
     8    19    20   ar
     9    20    21   ar
    10    21    24    1
    11    24    25    3
    12    21    22   ar
    13    22    26    1
    14    27    26    1
    15    27    28    1
    16    28    29    1
    17    29    30    1
    18    30    31    1
    19    30    32    1
    20    22    23   ar
    21     5     6   ar
    22     6     7   ar
    23     7     8   ar
    24     8     9    1
    25     9    10   ar
    26    10    11   ar
    27    11    12   ar
    28    12    13    1
    29    12    14   ar
    30     8     3   ar
    31    14     9   ar
    32    23    18   ar
    33    32    27    1
    34    16    17    1
    35     1     2    1
@<TRIPOS>MOLECULE
*****
 32 35 0 0 0
SMALL
GASTEIGER

@<TRIPOS>ATOM
      1 N         143.1824  142.2178  166.8118 N.pl3   1  UNL1       -0.2820
      2 H         143.9417  142.6388  167.2759 H       1  UNL1        0.1551
      3 C         143.8939  140.8610  163.1508 C.ar    1  UNL1        0.0491
      4 C         143.8920  140.9689  164.6469 C.ar    1  UNL1        0.0487
      5 C         143.1842  142.1099  165.3156 C.ar    1  UNL1        0.1345
      6 N         142.4784  143.1430  164.4883 N.ar    1  UNL1       -0.2290
      7 C         142.4803  143.0350  162.9922 C.ar    1  UNL1        0.1016
      8 C         143.1880  141.8940  162.3235 C.ar    1  UNL1        0.0354
      9 C         143.1899  141.7861  160.8273 C.ar    1  UNL1        0.0423
     10 C         144.1727  142.4343  159.8978 C.ar    1  UNL1        0.1217
     11 N         143.7995  142.0598  158.4941 N.ar    1  UNL1       -0.1676
     12 N         142.5860  141.1802  158.5560 N.ar    1  UNL1       -0.2473
     13 C         141.8743  140.5758  157.3821 C.3     1  UNL1        0.1538
     14 C         142.2093  141.0110  159.9980 C.ar    1  UNL1        0.0968
     15 C         143.8724  138.4358  162.2191 C.3     1  UNL1        0.1085
     16 N         144.6016  139.7199  162.4821 N.pl3   1  UNL1       -0.3312
     17 H         145.5447  139.8139  162.2158 H       1  UNL1        0.1469
     18 C         142.0235  141.6843  167.6008 C.ar    1  UNL1        0.1558
     19 C         141.8472  142.0817  169.0364 C.ar    1  UNL1        0.1342
     20 N         140.6883  141.5483  169.8254 N.ar    1  UNL1       -0.2263
     21 C         139.7058  140.6174  169.1787 C.ar    1  UNL1        0.2025
     22 C         139.8821  140.2200  167.7431 C.ar    1  UNL1        0.2543
     23 N         141.0410  140.7535  166.9541 N.ar    1  UNL1       -0.1931
     24 C         138.5469  140.0839  169.9676 C.1     1  UNL1        0.1246
     25 N         137.3881  139.5504  170.7565 N.1     1  UNL1       -0.1891
     26 O         138.8996  139.2892  167.0963 O.3     1  UNL1       -0.4610
     27 C         138.7453  139.2800  165.6044 C.3     1  UNL1        0.1849
     28 C         139.1486  138.1670  164.6831 C.3     1  UNL1        0.0623
     29 C         138.8132  138.5813  163.2810 C.3     1  UNL1        0.0760
     30 N         138.2026  139.9504  163.3358 N.3     1  UNL1       -0.2684
     31 C         137.7189  140.7476  162.1609 C.3     1  UNL1        0.0897
     32 C         138.1607  140.3821  164.7717 C.3     1  UNL1        0.1163
@<TRIPOS>BOND
     1    15    16    1
     2    16     3    1
     3     3     4   ar
     4     4     5   ar
     5     5     1    1
     6     1    18    1
     7    18    19   ar
     8    19    20   ar
     9    20    21   ar
    10    21    24    1
    11    24    25    3
    12    21    22   ar
    13    22    26    1
    14    27    26    1
    15    27    28    1
    16    28    29    1
    17    29    30    1
    18    30    31    1
    19    30    32    1
    20    22    23   ar
    21     5     6   ar
    22     6     7   ar
    23     7     8   ar
    24     8     9    1
    25     9    10   ar
    26    10    11   ar
    27    11    12   ar
    28    12    13    1
    29    12    14   ar
    30     8     3   ar
    31    14     9   ar
    32    23    18   ar
    33    32    27    1
    34    16    17    1
    35     1     2    1
