@<TRIPOS>MOLECULE
*****
 19 20 0 0 0
SMALL
GASTEIGER

@<TRIPOS>ATOM
      1 C         139.5522  143.0047  166.2563 C.2     1  UNL1        0.0001
      2 C         140.8283  142.8068  167.0193 C.2     1  UNL1        0.0045
      3 C         140.8150  142.0664  168.3238 C.ar    1  UNL1        0.0549
      4 C         140.5867  142.8105  169.6062 C.ar    1  UNL1        0.1422
      5 F         140.3718  144.2948  169.5840 F       1  UNL1       -0.2041
      6 C         140.5734  142.0702  170.9107 C.ar    1  UNL1        0.0298
      7 C         140.7884  140.5858  170.9328 C.ar    1  UNL1        0.0046
      8 C         141.0166  139.8418  169.6506 C.ar    1  UNL1        0.0298
      9 C         141.0299  140.5821  168.3460 C.ar    1  UNL1        0.1422
     10 F         141.2582  139.8381  167.0638 F       1  UNL1       -0.2041
     11 C         139.5921  145.2257  162.3427 C.ar    1  UNL1        0.0447
     12 C         140.8647  145.0461  163.1162 C.ar    1  UNL1        0.0143
     13 C         140.8514  144.3058  164.4207 C.ar    1  UNL1        0.0013
     14 C         139.5655  143.7451  164.9518 C.ar    1  UNL1        0.0001
     15 C         138.2929  143.9246  164.1783 C.ar    1  UNL1        0.0013
     16 C         138.3062  144.6649  162.8738 C.ar    1  UNL1        0.0143
     17 C         140.3698  145.4153  159.8711 C.3     1  UNL1        0.1085
     18 N         139.6054  145.9660  161.0382 N.pl3   1  UNL1       -0.3313
     19 H         139.1124  146.8134  160.9481 H       1  UNL1        0.1469
@<TRIPOS>BOND
     1    17    18    1
     2    18    11    1
     3    11    12   ar
     4    12    13   ar
     5    13    14   ar
     6    14     1    1
     7     1     2    2
     8     2     3    1
     9     3     4   ar
    10     4     5    1
    11     4     6   ar
    12     6     7   ar
    13     7     8   ar
    14     8     9   ar
    15     9    10    1
    16    14    15   ar
    17    15    16   ar
    18    16    11   ar
    19     9     3   ar
    20    18    19    1
@<TRIPOS>MOLECULE
*****
 19 20 0 0 0
SMALL
GASTEIGER

@<TRIPOS>ATOM
      1 C         139.5695  142.9991  166.2842 C.2     1  UNL1        0.0001
      2 C         140.8523  142.7866  167.0321 C.2     1  UNL1        0.0045
      3 C         140.8466  142.0426  168.3346 C.ar    1  UNL1        0.0549
      4 C         141.0319  140.5541  168.3488 C.ar    1  UNL1        0.1422
      5 F         141.2227  139.8097  167.0607 F       1  UNL1       -0.2041
      6 C         141.0263  139.8101  169.6513 C.ar    1  UNL1        0.0298
      7 C         140.8354  140.5546  170.9395 C.ar    1  UNL1        0.0046
      8 C         140.6502  142.0431  170.9252 C.ar    1  UNL1        0.0298
      9 C         140.6558  142.7870  169.6227 C.ar    1  UNL1        0.1422
     10 F         140.4705  144.2755  169.6084 F       1  UNL1       -0.2041
     11 C         139.5864  145.2311  162.3767 C.ar    1  UNL1        0.0447
     12 C         138.3058  144.6584  162.9078 C.ar    1  UNL1        0.0143
     13 C         138.3002  143.9144  164.2103 C.ar    1  UNL1        0.0013
     14 C         139.5752  143.7431  164.9817 C.ar    1  UNL1        0.0001
     15 C         140.8557  144.3158  164.4506 C.ar    1  UNL1        0.0013
     16 C         140.8614  145.0598  163.1482 C.ar    1  UNL1        0.0143
     17 C         140.3608  145.4347  159.9052 C.3     1  UNL1        0.1085
     18 N         139.5920  145.9751  161.0743 N.pl3   1  UNL1       -0.3313
     19 H         139.0911  146.8181  160.9868 H       1  UNL1        0.1469
@<TRIPOS>BOND
     1    17    18    1
     2    18    11    1
     3    11    12   ar
     4    12    13   ar
     5    13    14   ar
     6    14     1    1
     7     1     2    2
     8     2     3    1
     9     3     4   ar
    10     4     5    1
    11     4     6   ar
    12     6     7   ar
    13     7     8   ar
    14     8     9   ar
    15     9    10    1
    16    14    15   ar
    17    15    16   ar
    18    16    11   ar
    19     9     3   ar
    20    18    19    1
@<TRIPOS>MOLECULE
*****
 19 20 0 0 0
SMALL
GASTEIGER

@<TRIPOS>ATOM
      1 C         140.2276  143.1833  166.2932 C.2     1  UNL1        0.0001
      2 C         141.3461  142.1976  166.4582 C.2     1  UNL1        0.0045
      3 C         141.5462  141.5034  167.7727 C.ar    1  UNL1        0.0549
      4 C         140.4966  140.5669  168.2938 C.ar    1  UNL1        0.1422
      5 F         139.2470  140.3247  167.5003 F       1  UNL1       -0.2041
      6 C         140.6968  139.8727  169.6084 C.ar    1  UNL1        0.0298
      7 C         141.9465  140.1150  170.4018 C.ar    1  UNL1        0.0046
      8 C         142.9960  141.0515  169.8807 C.ar    1  UNL1        0.0298
      9 C         142.7959  141.7456  168.5662 C.ar    1  UNL1        0.1422
     10 F         143.8454  142.6821  168.0451 F       1  UNL1       -0.2041
     11 C         139.6271  145.2658  162.3495 C.ar    1  UNL1        0.0447
     12 C         141.0004  145.1688  162.9450 C.ar    1  UNL1        0.0143
     13 C         141.2006  144.4746  164.2596 C.ar    1  UNL1        0.0013
     14 C         140.0274  143.8775  164.9786 C.ar    1  UNL1        0.0001
     15 C         138.6541  143.9745  164.3832 C.ar    1  UNL1        0.0013
     16 C         138.4540  144.6687  163.0686 C.ar    1  UNL1        0.0143
     17 C         140.2496  145.5640  159.8448 C.3     1  UNL1        0.1085
     18 N         139.4270  145.9600  161.0350 N.pl3   1  UNL1       -0.3313
     19 H         138.7557  146.6755  160.9533 H       1  UNL1        0.1469
@<TRIPOS>BOND
     1    17    18    1
     2    18    11    1
     3    11    12   ar
     4    12    13   ar
     5    13    14   ar
     6    14     1    1
     7     1     2    2
     8     2     3    1
     9     3     4   ar
    10     4     5    1
    11     4     6   ar
    12     6     7   ar
    13     7     8   ar
    14     8     9   ar
    15     9    10    1
    16    14    15   ar
    17    15    16   ar
    18    16    11   ar
    19     9     3   ar
    20    18    19    1
@<TRIPOS>MOLECULE
*****
 19 20 0 0 0
SMALL
GASTEIGER

@<TRIPOS>ATOM
      1 C         140.1137  139.9771  166.6996 C.2     1  UNL1        0.0001
      2 C         140.1468  141.3797  167.2302 C.2     1  UNL1        0.0045
      3 C         140.8339  141.6736  168.5308 C.ar    1  UNL1        0.0549
      4 C         140.1276  141.4118  169.8280 C.ar    1  UNL1        0.1422
      5 F         138.7344  140.8562  169.8247 F       1  UNL1       -0.2041
      6 C         140.8147  141.7057  171.1286 C.ar    1  UNL1        0.0298
      7 C         142.2081  142.2613  171.1320 C.ar    1  UNL1        0.0046
      8 C         142.9142  142.5231  169.8347 C.ar    1  UNL1        0.0298
      9 C         142.2271  142.2292  168.5342 C.ar    1  UNL1        0.1422
     10 F         142.9333  142.4909  167.2370 F       1  UNL1       -0.2041
     11 C         138.0523  139.0954  162.7979 C.ar    1  UNL1        0.0447
     12 C         138.8392  138.0220  163.4897 C.ar    1  UNL1        0.0143
     13 C         139.5263  138.3159  164.7903 C.ar    1  UNL1        0.0013
     14 C         139.4265  139.6832  165.3991 C.ar    1  UNL1        0.0001
     15 C         138.6397  140.7565  164.7072 C.ar    1  UNL1        0.0013
     16 C         137.9526  140.4626  163.4066 C.ar    1  UNL1        0.0143
     17 C         137.4060  139.8057  160.3839 C.3     1  UNL1        0.1085
     18 N         137.3652  138.8015  161.4973 N.pl3   1  UNL1       -0.3313
     19 H         136.8875  137.9495  161.3745 H       1  UNL1        0.1469
@<TRIPOS>BOND
     1    17    18    1
     2    18    11    1
     3    11    12   ar
     4    12    13   ar
     5    13    14   ar
     6    14     1    1
     7     1     2    2
     8     2     3    1
     9     3     4   ar
    10     4     5    1
    11     4     6   ar
    12     6     7   ar
    13     7     8   ar
    14     8     9   ar
    15     9    10    1
    16    14    15   ar
    17    15    16   ar
    18    16    11   ar
    19     9     3   ar
    20    18    19    1
@<TRIPOS>MOLECULE
*****
 19 20 0 0 0
SMALL
GASTEIGER

@<TRIPOS>ATOM
      1 C         139.8511  140.0236  166.5089 C.2     1  UNL1        0.0001
      2 C         140.1170  141.4068  167.0246 C.2     1  UNL1        0.0045
      3 C         140.7801  141.5960  168.3567 C.ar    1  UNL1        0.0549
      4 C         142.1509  142.2005  168.4330 C.ar    1  UNL1        0.1422
      5 F         142.8584  142.6157  167.1772 F       1  UNL1       -0.2041
      6 C         142.8140  142.3897  169.7650 C.ar    1  UNL1        0.0298
      7 C         142.1064  141.9745  171.0208 C.ar    1  UNL1        0.0046
      8 C         140.7358  141.3700  170.9445 C.ar    1  UNL1        0.0298
      9 C         140.0726  141.1808  169.6124 C.ar    1  UNL1        0.1422
     10 F         138.7019  140.5764  169.5361 F       1  UNL1       -0.2041
     11 C         137.8616  139.4559  162.5127 C.ar    1  UNL1        0.0447
     12 C         137.6651  140.7335  163.2736 C.ar    1  UNL1        0.0143
     13 C         138.3283  140.9228  164.6056 C.ar    1  UNL1        0.0013
     14 C         139.1879  139.8343  165.1769 C.ar    1  UNL1        0.0001
     15 C         139.3844  138.5567  164.4160 C.ar    1  UNL1        0.0013
     16 C         138.7212  138.3675  163.0839 C.ar    1  UNL1        0.0143
     17 C         137.7517  139.9474  159.9639 C.3     1  UNL1        0.1085
     18 N         137.1985  139.2666  161.1806 N.pl3   1  UNL1       -0.3313
     19 H         136.4001  138.6956  161.1049 H       1  UNL1        0.1469
@<TRIPOS>BOND
     1    17    18    1
     2    18    11    1
     3    11    12   ar
     4    12    13   ar
     5    13    14   ar
     6    14     1    1
     7     1     2    2
     8     2     3    1
     9     3     4   ar
    10     4     5    1
    11     4     6   ar
    12     6     7   ar
    13     7     8   ar
    14     8     9   ar
    15     9    10    1
    16    14    15   ar
    17    15    16   ar
    18    16    11   ar
    19     9     3   ar
    20    18    19    1
@<TRIPOS>MOLECULE
*****
 19 20 0 0 0
SMALL
GASTEIGER

@<TRIPOS>ATOM
      1 C         143.3074  142.3078  166.5087 C.2     1  UNL1        0.0001
      2 C         142.0260  141.5764  166.7786 C.2     1  UNL1        0.0045
      3 C         141.5174  141.4478  168.1839 C.ar    1  UNL1        0.0549
      4 C         140.5545  142.4608  168.7286 C.ar    1  UNL1        0.1422
      5 F         140.1001  143.6023  167.8681 F       1  UNL1       -0.2041
      6 C         140.0459  142.3322  170.1339 C.ar    1  UNL1        0.0298
      7 C         140.5003  141.1907  170.9945 C.ar    1  UNL1        0.0046
      8 C         141.4632  140.1777  170.4497 C.ar    1  UNL1        0.0298
      9 C         141.9717  140.3063  169.0444 C.ar    1  UNL1        0.1422
     10 F         142.9346  139.2934  168.4997 F       1  UNL1       -0.2041
     11 C         144.8330  142.6935  162.2928 C.ar    1  UNL1        0.0447
     12 C         144.1341  143.8488  162.9461 C.ar    1  UNL1        0.0143
     13 C         143.6255  143.7202  164.3514 C.ar    1  UNL1        0.0013
     14 C         143.8159  142.4364  165.1034 C.ar    1  UNL1        0.0001
     15 C         144.5149  141.2812  164.4501 C.ar    1  UNL1        0.0013
     16 C         145.0235  141.4097  163.0448 C.ar    1  UNL1        0.0143
     17 C         144.4524  142.4675  159.7328 C.3     1  UNL1        0.1085
     18 N         145.3416  142.8221  160.8875 N.pl3   1  UNL1       -0.3313
     19 H         146.2590  143.1393  160.7231 H       1  UNL1        0.1469
@<TRIPOS>BOND
     1    17    18    1
     2    18    11    1
     3    11    12   ar
     4    12    13   ar
     5    13    14   ar
     6    14     1    1
     7     1     2    2
     8     2     3    1
     9     3     4   ar
    10     4     5    1
    11     4     6   ar
    12     6     7   ar
    13     7     8   ar
    14     8     9   ar
    15     9    10    1
    16    14    15   ar
    17    15    16   ar
    18    16    11   ar
    19     9     3   ar
    20    18    19    1
@<TRIPOS>MOLECULE
*****
 19 20 0 0 0
SMALL
GASTEIGER

@<TRIPOS>ATOM
      1 C         142.1609  139.4697  166.4678 C.2     1  UNL1        0.0001
      2 C         141.4121  140.7540  166.6674 C.2     1  UNL1        0.0045
      3 C         141.1547  141.2644  168.0542 C.ar    1  UNL1        0.0549
      4 C         139.9390  140.8108  168.8068 C.ar    1  UNL1        0.1422
      5 F         138.9806  139.8469  168.1725 F       1  UNL1       -0.2041
      6 C         139.6816  141.3212  170.1936 C.ar    1  UNL1        0.0298
      7 C         140.6401  142.2851  170.8279 C.ar    1  UNL1        0.0046
      8 C         141.8558  142.7387  170.0754 C.ar    1  UNL1        0.0298
      9 C         142.1131  142.2283  168.6885 C.ar    1  UNL1        0.1422
     10 F         143.3288  142.6818  167.9360 F       1  UNL1       -0.2041
     11 C         142.9329  137.9386  162.3073 C.ar    1  UNL1        0.0447
     12 C         141.6733  137.5551  163.0259 C.ar    1  UNL1        0.0143
     13 C         141.4160  138.0655  164.4127 C.ar    1  UNL1        0.0013
     14 C         142.4182  138.9593  165.0810 C.ar    1  UNL1        0.0001
     15 C         143.6778  139.3428  164.3624 C.ar    1  UNL1        0.0013
     16 C         143.9351  138.8324  162.9755 C.ar    1  UNL1        0.0143
     17 C         142.5371  138.0911  159.7441 C.3     1  UNL1        0.1085
     18 N         143.1902  137.4282  160.9205 N.pl3   1  UNL1       -0.3313
     19 H         143.7878  136.6581  160.7824 H       1  UNL1        0.1469
@<TRIPOS>BOND
     1    17    18    1
     2    18    11    1
     3    11    12   ar
     4    12    13   ar
     5    13    14   ar
     6    14     1    1
     7     1     2    2
     8     2     3    1
     9     3     4   ar
    10     4     5    1
    11     4     6   ar
    12     6     7   ar
    13     7     8   ar
    14     8     9   ar
    15     9    10    1
    16    14    15   ar
    17    15    16   ar
    18    16    11   ar
    19     9     3   ar
    20    18    19    1
@<TRIPOS>MOLECULE
*****
 19 20 0 0 0
SMALL
GASTEIGER

@<TRIPOS>ATOM
      1 C         142.7975  139.4772  166.5157 C.2     1  UNL1        0.0001
      2 C         141.8712  140.5891  166.9103 C.2     1  UNL1        0.0045
      3 C         141.4711  140.7579  168.3461 C.ar    1  UNL1        0.0549
      4 C         142.3799  141.4774  169.2983 C.ar    1  UNL1        0.1422
      5 F         143.6887  142.0279  168.8147 F       1  UNL1       -0.2041
      6 C         141.9797  141.6462  170.7340 C.ar    1  UNL1        0.0298
      7 C         140.6709  141.0956  171.2176 C.ar    1  UNL1        0.0046
      8 C         139.7622  140.3762  170.2654 C.ar    1  UNL1        0.0298
      9 C         140.1623  140.2073  168.8297 C.ar    1  UNL1        0.1422
     10 F         139.2536  139.4879  167.8775 F       1  UNL1       -0.2041
     11 C         143.9979  138.9707  162.2084 C.ar    1  UNL1        0.0447
     12 C         142.8495  138.1822  162.7647 C.ar    1  UNL1        0.0143
     13 C         142.4494  138.3511  164.2004 C.ar    1  UNL1        0.0013
     14 C         143.1976  139.3084  165.0799 C.ar    1  UNL1        0.0001
     15 C         144.3460  140.0969  164.5237 C.ar    1  UNL1        0.0013
     16 C         144.7461  139.9280  163.0879 C.ar    1  UNL1        0.0143
     17 C         143.6222  139.4941  159.6915 C.3     1  UNL1        0.1085
     18 N         144.3980  138.8018  160.7726 N.pl3   1  UNL1       -0.3313
     19 H         145.1698  138.2366  160.5399 H       1  UNL1        0.1469
@<TRIPOS>BOND
     1    17    18    1
     2    18    11    1
     3    11    12   ar
     4    12    13   ar
     5    13    14   ar
     6    14     1    1
     7     1     2    2
     8     2     3    1
     9     3     4   ar
    10     4     5    1
    11     4     6   ar
    12     6     7   ar
    13     7     8   ar
    14     8     9   ar
    15     9    10    1
    16    14    15   ar
    17    15    16   ar
    18    16    11   ar
    19     9     3   ar
    20    18    19    1
@<TRIPOS>MOLECULE
*****
 19 20 0 0 0
SMALL
GASTEIGER

@<TRIPOS>ATOM
      1 C         141.0230  139.7656  166.1997 C.2     1  UNL1        0.0001
      2 C         141.9823  140.2995  167.2217 C.2     1  UNL1        0.0045
      3 C         141.4637  140.9236  168.4832 C.ar    1  UNL1        0.0549
      4 C         141.5824  140.1905  169.7865 C.ar    1  UNL1        0.1422
      5 F         142.2198  138.8333  169.8283 F       1  UNL1       -0.2041
      6 C         141.0637  140.8146  171.0481 C.ar    1  UNL1        0.0298
      7 C         140.4263  142.1718  171.0063 C.ar    1  UNL1        0.0046
      8 C         140.3076  142.9049  169.7030 C.ar    1  UNL1        0.0298
      9 C         140.8262  142.2808  168.4415 C.ar    1  UNL1        0.1422
     10 F         140.7075  143.0138  167.1383 F       1  UNL1       -0.2041
     11 C         142.5791  137.8932  162.4151 C.ar    1  UNL1        0.0447
     12 C         143.3572  138.9860  163.0862 C.ar    1  UNL1        0.0143
     13 C         142.8385  139.6101  164.3477 C.ar    1  UNL1        0.0013
     14 C         141.5417  139.1415  164.9381 C.ar    1  UNL1        0.0001
     15 C         140.7636  138.0487  164.2670 C.ar    1  UNL1        0.0013
     16 C         141.2823  137.4246  163.0055 C.ar    1  UNL1        0.0143
     17 C         142.7853  137.8918  159.8252 C.3     1  UNL1        0.1085
     18 N         143.0978  137.2691  161.1536 N.pl3   1  UNL1       -0.3313
     19 H         143.6434  136.4508  161.1974 H       1  UNL1        0.1469
@<TRIPOS>BOND
     1    17    18    1
     2    18    11    1
     3    11    12   ar
     4    12    13   ar
     5    13    14   ar
     6    14     1    1
     7     1     2    2
     8     2     3    1
     9     3     4   ar
    10     4     5    1
    11     4     6   ar
    12     6     7   ar
    13     7     8   ar
    14     8     9   ar
    15     9    10    1
    16    14    15   ar
    17    15    16   ar
    18    16    11   ar
    19     9     3   ar
    20    18    19    1
