@<TRIPOS>MOLECULE
*****
 43 48 0 0 0
SMALL
GASTEIGER

@<TRIPOS>ATOM
      1 C         137.9236  139.9892  162.1173 C.3     1  UNL1        0.0700
      2 C         138.1382  141.0303  161.0589 C.3     1  UNL1        0.0194
      3 C         138.1745  142.4827  161.4320 C.3     1  UNL1        0.0310
      4 C         137.9961  142.8940  162.8635 C.3     1  UNL1        0.1177
      5 C         137.7816  141.8529  163.9218 C.3     1  UNL1        0.0310
      6 C         137.7453  140.4005  163.5487 C.3     1  UNL1        0.0194
      7 O         137.9687  142.0860  162.7074 O.3     1  UNL1       -0.3548
      8 C         137.9359  140.7727  162.3701 C.3     1  UNL1        0.1563
      9 C         138.0324  144.3464  163.2365 C.3     1  UNL1        0.1396
     10 O         137.0767  145.3092  162.5965 O.3     1  UNL1       -0.3817
     11 H         136.5087  144.8331  161.9707 H       1  UNL1        0.2105
     12 C         139.0244  144.8360  164.2496 C.3     1  UNL1        0.0619
     13 C         140.4729  144.4693  164.1189 C.ar    1  UNL1        0.0285
     14 C         141.2706  144.9685  162.9507 C.ar    1  UNL1        0.1567
     15 F         140.6196  145.8344  161.9133 F       1  UNL1       -0.2028
     16 C         142.7192  144.6017  162.8201 C.ar    1  UNL1        0.1281
     17 N         143.3701  143.7357  163.8576 N.ar    1  UNL1       -0.2400
     18 C         142.5725  143.2366  165.0257 C.ar    1  UNL1        0.0990
     19 C         143.2235  142.3706  166.0632 C.ar    1  UNL1        0.0254
     20 C         142.4258  141.8714  167.2314 C.ar    1  UNL1        0.0593
     21 C         140.9772  142.2382  167.3621 C.ar    1  UNL1        0.2250
     22 N         140.3263  143.1041  166.3246 N.ar    1  UNL1       -0.2104
     23 C         141.1239  143.6033  165.1564 C.ar    1  UNL1        0.1002
     24 O         140.1796  141.7390  168.5302 O.3     1  UNL1       -0.4575
     25 C         140.8551  140.9668  169.6245 C.3     1  UNL1        0.2387
     26 C         141.3931  141.6845  170.8269 C.3     1  UNL1        0.1848
     27 O         140.4516  142.2136  171.8679 O.3     1  UNL1       -0.3784
     28 H         139.9107  142.9217  171.4848 H       1  UNL1        0.2106
     29 N         137.8874  138.5368  161.7442 N.3     1  UNL1       -0.2926
     30 H         137.4256  138.0473  162.5107 H       1  UNL1        0.1236
     31 C         139.1652  137.8012  161.4681 C.3     1  UNL1        0.1152
     32 O         145.8530  141.6413  162.5983 O.2     1  UNL1       -0.2707
     33 C         144.8407  140.6331  163.0552 C.2     1  UNL1        0.2718
     34 C         145.0455  139.8966  164.3458 C.3     1  UNL1        0.2898
     35 O         144.0333  138.8883  164.8027 O.3     1  UNL1       -0.4628
     36 C         142.8163  138.6166  163.9691 C.ar    1  UNL1        0.1708
     37 C         141.8040  137.6083  164.4260 C.ar    1  UNL1        0.0411
     38 C         140.5870  137.3365  163.5924 C.ar    1  UNL1        0.0193
     39 C         140.3822  138.0730  162.3017 C.ar    1  UNL1        0.0765
     40 N         141.3945  139.0813  161.8448 N.ar    1  UNL1       -0.2304
     41 C         142.6115  139.3530  162.6785 C.ar    1  UNL1        0.1682
     42 N         143.6237  140.3613  162.2216 N.am    1  UNL1       -0.2639
     43 H         143.4893  140.8447  161.3745 H       1  UNL1        0.1565
@<TRIPOS>BOND
     1    32    33    2
     2    33    34    1
     3    34    35    1
     4    35    36    1
     5    36    37   ar
     6    37    38   ar
     7    38    39   ar
     8    39    31    1
     9    31    29    1
    10    29     1    1
    11     1     2    1
    12     2     3    1
    13     3     4    1
    14     4     9    1
    15     9    10    1
    16     9    12    1
    17    12    13    1
    18    13    14   ar
    19    14    15    1
    20    14    16   ar
    21    16    17   ar
    22    17    18   ar
    23    18    19   ar
    24    19    20   ar
    25    20    21   ar
    26    21    24    1
    27    24    25    1
    28    25    26    1
    29    26    27    1
    30    21    22   ar
    31    22    23   ar
    32     4     5    1
    33     5     6    1
    34     4     7    1
    35     7     8    1
    36    39    40   ar
    37    40    41   ar
    38    41    42    1
    39    42    33   am
    40    41    36   ar
    41     6     1    1
    42     8     1    1
    43    23    13   ar
    44    23    18   ar
    45    29    30    1
    46    10    11    1
    47    27    28    1
    48    42    43    1
@<TRIPOS>MOLECULE
*****
 43 48 0 0 0
SMALL
GASTEIGER

@<TRIPOS>ATOM
      1 C         141.9384  144.8914  162.7891 C.3     1  UNL1        0.0700
      2 C         142.3175  144.4918  164.1843 C.3     1  UNL1        0.0194
      3 C         143.3081  143.3873  164.4052 C.3     1  UNL1        0.0310
      4 C         143.9197  142.6824  163.2307 C.3     1  UNL1        0.1177
      5 C         143.5406  143.0820  161.8355 C.3     1  UNL1        0.0310
      6 C         142.5499  144.1866  161.6148 C.3     1  UNL1        0.0194
      7 O         143.3814  143.2816  163.0599 O.3     1  UNL1       -0.3548
      8 C         142.4857  144.2803  162.8602 C.3     1  UNL1        0.1563
      9 C         144.9103  141.5779  163.4516 C.3     1  UNL1        0.1396
     10 O         146.3660  141.8095  163.1738 O.3     1  UNL1       -0.3817
     11 H         146.4948  142.7185  162.8607 H       1  UNL1        0.2105
     12 C         144.4451  140.2419  163.9501 C.3     1  UNL1        0.0619
     13 C         143.2070  139.6175  163.3783 C.ar    1  UNL1        0.0285
     14 C         143.2411  138.9992  162.0120 C.ar    1  UNL1        0.1567
     15 F         144.5135  139.0053  161.2177 F       1  UNL1       -0.2028
     16 C         142.0029  138.3749  161.4402 C.ar    1  UNL1        0.1281
     17 N         140.7305  138.3688  162.2346 N.ar    1  UNL1       -0.2400
     18 C         140.6964  138.9870  163.6008 C.ar    1  UNL1        0.0990
     19 C         139.4240  138.9809  164.3952 C.ar    1  UNL1        0.0254
     20 C         139.3899  139.5992  165.7615 C.ar    1  UNL1        0.0593
     21 C         140.6281  140.2235  166.3333 C.ar    1  UNL1        0.2250
     22 N         141.9004  140.2296  165.5389 N.ar    1  UNL1       -0.2104
     23 C         141.9346  139.6114  164.1727 C.ar    1  UNL1        0.1002
     24 O         140.5939  140.8417  167.6995 O.3     1  UNL1       -0.4575
     25 C         139.8688  140.1521  168.8169 C.3     1  UNL1        0.2387
     26 C         140.5376  139.9739  170.1478 C.3     1  UNL1        0.1848
     27 O         139.7539  139.4573  171.3178 O.3     1  UNL1       -0.3784
     28 H         139.0744  140.1047  171.5629 H       1  UNL1        0.2106
     29 N         140.9478  145.9959  162.5683 N.3     1  UNL1       -0.2926
     30 H         141.1799  146.7363  163.2304 H       1  UNL1        0.1236
     31 C         139.4795  145.7272  162.7164 C.3     1  UNL1        0.1152
     32 O         138.0742  139.7491  157.9165 O.2     1  UNL1       -0.2707
     33 C         138.0058  140.3605  159.2846 C.2     1  UNL1        0.2718
     34 C         137.4007  139.5905  160.4208 C.3     1  UNL1        0.2898
     35 O         137.3324  140.2018  161.7888 O.3     1  UNL1       -0.4628
     36 C         137.8692  141.5832  162.0207 C.ar    1  UNL1        0.1708
     37 C         137.8008  142.1945  163.3888 C.ar    1  UNL1        0.0411
     38 C         138.3376  143.5758  163.6207 C.ar    1  UNL1        0.0193
     39 C         138.9427  144.3459  162.4845 C.ar    1  UNL1        0.0765
     40 N         139.0111  143.7345  161.1164 N.ar    1  UNL1       -0.2304
     41 C         138.4742  142.3531  160.8846 C.ar    1  UNL1        0.1682
     42 N         138.5426  141.7418  159.5165 N.am    1  UNL1       -0.2639
     43 H         138.9397  142.2472  158.7708 H       1  UNL1        0.1565
@<TRIPOS>BOND
     1    32    33    2
     2    33    34    1
     3    34    35    1
     4    35    36    1
     5    36    37   ar
     6    37    38   ar
     7    38    39   ar
     8    39    31    1
     9    31    29    1
    10    29     1    1
    11     1     2    1
    12     2     3    1
    13     3     4    1
    14     4     9    1
    15     9    10    1
    16     9    12    1
    17    12    13    1
    18    13    14   ar
    19    14    15    1
    20    14    16   ar
    21    16    17   ar
    22    17    18   ar
    23    18    19   ar
    24    19    20   ar
    25    20    21   ar
    26    21    24    1
    27    24    25    1
    28    25    26    1
    29    26    27    1
    30    21    22   ar
    31    22    23   ar
    32     4     5    1
    33     5     6    1
    34     4     7    1
    35     7     8    1
    36    39    40   ar
    37    40    41   ar
    38    41    42    1
    39    42    33   am
    40    41    36   ar
    41     6     1    1
    42     8     1    1
    43    23    13   ar
    44    23    18   ar
    45    29    30    1
    46    10    11    1
    47    27    28    1
    48    42    43    1
@<TRIPOS>MOLECULE
*****
 43 48 0 0 0
SMALL
GASTEIGER

@<TRIPOS>ATOM
      1 C         143.9810  143.5107  162.3394 C.3     1  UNL1        0.0700
      2 C         142.9186  143.3724  161.2896 C.3     1  UNL1        0.0194
      3 C         141.5673  143.9870  161.5044 C.3     1  UNL1        0.0310
      4 C         141.2783  144.7400  162.7692 C.3     1  UNL1        0.1177
      5 C         142.3407  144.8783  163.8191 C.3     1  UNL1        0.0310
      6 C         143.6921  144.2637  163.6041 C.3     1  UNL1        0.0194
      7 O         142.0337  144.4205  162.6964 O.3     1  UNL1       -0.3548
      8 C         143.2556  143.8648  162.5021 C.3     1  UNL1        0.1563
      9 C         139.9270  145.3545  162.9841 C.3     1  UNL1        0.1396
     10 O         139.5345  146.5872  162.2250 O.3     1  UNL1       -0.3817
     11 H         140.2630  146.8542  161.6429 H       1  UNL1        0.2105
     12 C         138.9682  144.7364  163.9581 C.3     1  UNL1        0.0619
     13 C         138.7690  143.2498  163.9736 C.ar    1  UNL1        0.0285
     14 C         138.0644  142.5756  162.8338 C.ar    1  UNL1        0.1567
     15 F         137.5590  143.3880  161.6786 F       1  UNL1       -0.2028
     16 C         137.8652  141.0890  162.8493 C.ar    1  UNL1        0.1281
     17 N         138.3705  140.2765  164.0045 N.ar    1  UNL1       -0.2400
     18 C         139.0751  140.9507  165.1443 C.ar    1  UNL1        0.0990
     19 C         139.5805  140.1382  166.2995 C.ar    1  UNL1        0.0254
     20 C         140.2851  140.8125  167.4392 C.ar    1  UNL1        0.0593
     21 C         140.4844  142.2991  167.4238 C.ar    1  UNL1        0.2250
     22 N         139.9790  143.1115  166.2685 N.ar    1  UNL1       -0.2104
     23 C         139.2744  142.4374  165.1288 C.ar    1  UNL1        0.1002
     24 O         141.1890  142.9732  168.5635 O.3     1  UNL1       -0.4575
     25 C         140.5447  143.0271  169.9170 C.3     1  UNL1        0.2387
     26 C         140.9141  142.0186  170.9641 C.3     1  UNL1        0.1848
     27 O         142.0477  142.2966  171.9064 O.3     1  UNL1       -0.3784
     28 H         142.8805  142.3278  171.4100 H       1  UNL1        0.2106
     29 N         145.3323  142.8962  162.1245 N.3     1  UNL1       -0.2926
     30 H         145.3891  142.6478  161.1369 H       1  UNL1        0.1236
     31 C         145.7341  141.6774  162.9013 C.3     1  UNL1        0.1152
     32 O         139.2810  137.6496  161.2028 O.2     1  UNL1       -0.2707
     33 C         140.4011  137.9705  162.1475 C.2     1  UNL1        0.2718
     34 C         140.4903  137.2697  163.4707 C.3     1  UNL1        0.2898
     35 O         141.6104  137.5906  164.4154 O.3     1  UNL1       -0.4628
     36 C         142.6413  138.6123  164.0369 C.ar    1  UNL1        0.1708
     37 C         143.7614  138.9332  164.9816 C.ar    1  UNL1        0.0411
     38 C         144.7923  139.9549  164.6031 C.ar    1  UNL1        0.0193
     39 C         144.7031  140.6557  163.2798 C.ar    1  UNL1        0.0765
     40 N         143.5830  140.3348  162.3351 N.ar    1  UNL1       -0.2304
     41 C         142.5521  139.3131  162.7137 C.ar    1  UNL1        0.1682
     42 N         141.4320  138.9922  161.7690 N.am    1  UNL1       -0.2639
     43 H         141.3735  139.4521  160.9005 H       1  UNL1        0.1565
@<TRIPOS>BOND
     1    32    33    2
     2    33    34    1
     3    34    35    1
     4    35    36    1
     5    36    37   ar
     6    37    38   ar
     7    38    39   ar
     8    39    31    1
     9    31    29    1
    10    29     1    1
    11     1     2    1
    12     2     3    1
    13     3     4    1
    14     4     9    1
    15     9    10    1
    16     9    12    1
    17    12    13    1
    18    13    14   ar
    19    14    15    1
    20    14    16   ar
    21    16    17   ar
    22    17    18   ar
    23    18    19   ar
    24    19    20   ar
    25    20    21   ar
    26    21    24    1
    27    24    25    1
    28    25    26    1
    29    26    27    1
    30    21    22   ar
    31    22    23   ar
    32     4     5    1
    33     5     6    1
    34     4     7    1
    35     7     8    1
    36    39    40   ar
    37    40    41   ar
    38    41    42    1
    39    42    33   am
    40    41    36   ar
    41     6     1    1
    42     8     1    1
    43    23    13   ar
    44    23    18   ar
    45    29    30    1
    46    10    11    1
    47    27    28    1
    48    42    43    1
@<TRIPOS>MOLECULE
*****
 43 48 0 0 0
SMALL
GASTEIGER

@<TRIPOS>ATOM
      1 C         144.0449  139.8176  163.8494 C.3     1  UNL1        0.0700
      2 C         143.7629  141.2856  163.7244 C.3     1  UNL1        0.0194
      3 C         143.2468  142.0534  164.9052 C.3     1  UNL1        0.0310
      4 C         143.0128  141.3532  166.2110 C.3     1  UNL1        0.1177
      5 C         143.2948  139.8853  166.3360 C.3     1  UNL1        0.0310
      6 C         143.8109  139.1175  165.1552 C.3     1  UNL1        0.0194
      7 O         143.2964  140.8905  165.5918 O.3     1  UNL1       -0.3548
      8 C         143.7631  140.1962  164.5242 C.3     1  UNL1        0.1563
      9 C         142.4968  142.1210  167.3917 C.3     1  UNL1        0.1396
     10 O         143.4512  142.6283  168.4317 O.3     1  UNL1       -0.3817
     11 H         144.3562  142.3756  168.1907 H       1  UNL1        0.2105
     12 C         141.0263  142.3815  167.5324 C.3     1  UNL1        0.0619
     13 C         140.0388  141.5200  166.8027 C.ar    1  UNL1        0.0285
     14 C         139.7126  140.1501  167.3197 C.ar    1  UNL1        0.1567
     15 F         140.3741  139.6418  168.5663 F       1  UNL1       -0.2028
     16 C         138.7251  139.2886  166.5900 C.ar    1  UNL1        0.1281
     17 N         138.0637  139.7969  165.3433 N.ar    1  UNL1       -0.2400
     18 C         138.3897  141.1667  164.8264 C.ar    1  UNL1        0.0990
     19 C         137.7282  141.6749  163.5797 C.ar    1  UNL1        0.0254
     20 C         138.0544  143.0448  163.0628 C.ar    1  UNL1        0.0593
     21 C         139.0419  143.9064  163.7925 C.ar    1  UNL1        0.2250
     22 N         139.7033  143.3981  165.0392 N.ar    1  UNL1       -0.2104
     23 C         139.3773  142.0283  165.5561 C.ar    1  UNL1        0.1002
     24 O         139.3679  145.2762  163.2756 O.3     1  UNL1       -0.4575
     25 C         140.5894  145.4880  162.4311 C.3     1  UNL1        0.2387
     26 C         140.5238  145.2677  160.9488 C.3     1  UNL1        0.1848
     27 O         141.7255  145.5460  160.0953 O.3     1  UNL1       -0.3784
     28 H         141.9193  146.4963  160.1097 H       1  UNL1        0.2106
     29 N         144.5609  139.0498  162.6687 N.3     1  UNL1       -0.2926
     30 H         144.7566  139.7323  161.9364 H       1  UNL1        0.1236
     31 C         143.7186  137.9761  162.0460 C.3     1  UNL1        0.1152
     32 O         137.4143  140.6811  158.3462 O.2     1  UNL1       -0.2707
     33 C         138.0270  139.9451  159.5007 C.2     1  UNL1        0.2718
     34 C         137.1510  139.3748  160.5765 C.3     1  UNL1        0.2898
     35 O         137.7637  138.6388  161.7310 O.3     1  UNL1       -0.4628
     36 C         139.2524  138.4731  161.8098 C.ar    1  UNL1        0.1708
     37 C         139.8651  137.7371  162.9643 C.ar    1  UNL1        0.0411
     38 C         141.3538  137.5714  163.0431 C.ar    1  UNL1        0.0193
     39 C         142.2299  138.1418  161.9673 C.ar    1  UNL1        0.0765
     40 N         141.6172  138.8778  160.8127 N.ar    1  UNL1       -0.2304
     41 C         140.1284  139.0434  160.7340 C.ar    1  UNL1        0.1682
     42 N         139.5157  139.7794  159.5795 N.am    1  UNL1       -0.2639
     43 H         140.0907  140.1538  158.8734 H       1  UNL1        0.1565
@<TRIPOS>BOND
     1    32    33    2
     2    33    34    1
     3    34    35    1
     4    35    36    1
     5    36    37   ar
     6    37    38   ar
     7    38    39   ar
     8    39    31    1
     9    31    29    1
    10    29     1    1
    11     1     2    1
    12     2     3    1
    13     3     4    1
    14     4     9    1
    15     9    10    1
    16     9    12    1
    17    12    13    1
    18    13    14   ar
    19    14    15    1
    20    14    16   ar
    21    16    17   ar
    22    17    18   ar
    23    18    19   ar
    24    19    20   ar
    25    20    21   ar
    26    21    24    1
    27    24    25    1
    28    25    26    1
    29    26    27    1
    30    21    22   ar
    31    22    23   ar
    32     4     5    1
    33     5     6    1
    34     4     7    1
    35     7     8    1
    36    39    40   ar
    37    40    41   ar
    38    41    42    1
    39    42    33   am
    40    41    36   ar
    41     6     1    1
    42     8     1    1
    43    23    13   ar
    44    23    18   ar
    45    29    30    1
    46    10    11    1
    47    27    28    1
    48    42    43    1
@<TRIPOS>MOLECULE
*****
 43 48 0 0 0
SMALL
GASTEIGER

@<TRIPOS>ATOM
      1 C         142.5183  138.4284  162.5527 C.3     1  UNL1        0.0700
      2 C         142.9241  139.4697  161.5522 C.3     1  UNL1        0.0194
      3 C         143.8942  140.5456  161.9411 C.3     1  UNL1        0.0310
      4 C         144.4585  140.5803  163.3306 C.3     1  UNL1        0.1177
      5 C         144.0527  139.5389  164.3310 C.3     1  UNL1        0.0310
      6 C         143.0825  138.4630  163.9420 C.3     1  UNL1        0.0194
      7 O         143.9301  139.9712  163.1639 O.3     1  UNL1       -0.3548
      8 C         143.0529  138.9983  162.8122 C.3     1  UNL1        0.1563
      9 C         145.4286  141.6561  163.7195 C.3     1  UNL1        0.1396
     10 O         146.7993  141.6858  163.1109 O.3     1  UNL1       -0.3817
     11 H         146.8942  140.9452  162.4917 H       1  UNL1        0.2105
     12 C         145.0281  142.7024  164.7170 C.3     1  UNL1        0.0619
     13 C         143.6384  143.2664  164.6951 C.ar    1  UNL1        0.0285
     14 C         143.2745  144.3257  163.6973 C.ar    1  UNL1        0.1567
     15 F         144.3003  144.8208  162.7213 F       1  UNL1       -0.2028
     16 C         141.8848  144.8897  163.6754 C.ar    1  UNL1        0.1281
     17 N         140.8589  144.3947  164.6514 N.ar    1  UNL1       -0.2400
     18 C         141.2228  143.3355  165.6492 C.ar    1  UNL1        0.0990
     19 C         140.1970  142.8404  166.6252 C.ar    1  UNL1        0.0254
     20 C         140.5609  141.7812  167.6231 C.ar    1  UNL1        0.0593
     21 C         141.9506  141.2171  167.6449 C.ar    1  UNL1        0.2250
     22 N         142.9765  141.7122  166.6689 N.ar    1  UNL1       -0.2104
     23 C         142.6126  142.7714  165.6711 C.ar    1  UNL1        0.1002
     24 O         142.3145  140.1579  168.6428 O.3     1  UNL1       -0.4575
     25 C         142.9073  140.5452  169.9651 C.3     1  UNL1        0.2387
     26 C         142.0358  141.1360  171.0336 C.3     1  UNL1        0.1848
     27 O         142.2661  142.5444  171.4955 O.3     1  UNL1       -0.3784
     28 H         143.1274  142.6028  171.9379 H       1  UNL1        0.2106
     29 N         141.5482  137.3525  162.1638 N.3     1  UNL1       -0.2926
     30 H         141.9059  136.9289  161.3076 H       1  UNL1        0.1236
     31 C         140.1102  137.6954  161.9091 C.3     1  UNL1        0.1152
     32 O         138.2724  145.2667  162.1292 O.2     1  UNL1       -0.2707
     33 C         138.2552  143.9068  162.7620 C.2     1  UNL1        0.2718
     34 C         137.6080  143.7108  164.1009 C.3     1  UNL1        0.2898
     35 O         137.5907  142.3509  164.7337 O.3     1  UNL1       -0.4628
     36 C         138.2206  141.1871  164.0276 C.ar    1  UNL1        0.1708
     37 C         138.2033  139.8272  164.6603 C.ar    1  UNL1        0.0411
     38 C         138.8332  138.6633  163.9542 C.ar    1  UNL1        0.0193
     39 C         139.4804  138.8593  162.6152 C.ar    1  UNL1        0.0765
     40 N         139.4976  140.2192  161.9824 N.ar    1  UNL1       -0.2304
     41 C         138.8677  141.3831  162.6886 C.ar    1  UNL1        0.1682
     42 N         138.8850  142.7430  162.0559 N.am    1  UNL1       -0.2639
     43 H         139.3098  142.8716  161.1771 H       1  UNL1        0.1565
@<TRIPOS>BOND
     1    32    33    2
     2    33    34    1
     3    34    35    1
     4    35    36    1
     5    36    37   ar
     6    37    38   ar
     7    38    39   ar
     8    39    31    1
     9    31    29    1
    10    29     1    1
    11     1     2    1
    12     2     3    1
    13     3     4    1
    14     4     9    1
    15     9    10    1
    16     9    12    1
    17    12    13    1
    18    13    14   ar
    19    14    15    1
    20    14    16   ar
    21    16    17   ar
    22    17    18   ar
    23    18    19   ar
    24    19    20   ar
    25    20    21   ar
    26    21    24    1
    27    24    25    1
    28    25    26    1
    29    26    27    1
    30    21    22   ar
    31    22    23   ar
    32     4     5    1
    33     5     6    1
    34     4     7    1
    35     7     8    1
    36    39    40   ar
    37    40    41   ar
    38    41    42    1
    39    42    33   am
    40    41    36   ar
    41     6     1    1
    42     8     1    1
    43    23    13   ar
    44    23    18   ar
    45    29    30    1
    46    10    11    1
    47    27    28    1
    48    42    43    1
@<TRIPOS>MOLECULE
*****
 43 48 0 0 0
SMALL
GASTEIGER

@<TRIPOS>ATOM
      1 C         143.1079  142.4022  164.9320 C.3     1  UNL1        0.0700
      2 C         141.8520  143.1627  165.2392 C.3     1  UNL1        0.0194
      3 C         140.6685  142.4512  165.8248 C.3     1  UNL1        0.0310
      4 C         140.7409  140.9790  166.1032 C.3     1  UNL1        0.1177
      5 C         141.9968  140.2184  165.7961 C.3     1  UNL1        0.0310
      6 C         143.1803  140.9301  165.2105 C.3     1  UNL1        0.0194
      7 O         141.4151  141.3255  165.7818 O.3     1  UNL1       -0.3548
      8 C         142.4853  141.9689  165.2523 C.3     1  UNL1        0.1563
      9 C         139.5574  140.2674  166.6888 C.3     1  UNL1        0.1396
     10 O         139.5562  139.8813  168.1383 O.3     1  UNL1       -0.3817
     11 H         140.3887  140.1632  168.5486 H       1  UNL1        0.2105
     12 C         138.3751  139.9419  165.8250 C.3     1  UNL1        0.0619
     13 C         138.5833  139.4353  164.4286 C.ar    1  UNL1        0.0285
     14 C         138.9070  137.9892  164.1959 C.ar    1  UNL1        0.1567
     15 F         139.0225  137.0498  165.3595 F       1  UNL1       -0.2028
     16 C         139.1152  137.4826  162.7995 C.ar    1  UNL1        0.1281
     17 N         138.9997  138.4220  161.6358 N.ar    1  UNL1       -0.2400
     18 C         138.6760  139.8680  161.8685 C.ar    1  UNL1        0.0990
     19 C         138.5605  140.8074  160.7048 C.ar    1  UNL1        0.0254
     20 C         138.2368  142.2535  160.9376 C.ar    1  UNL1        0.0593
     21 C         138.0286  142.7601  162.3339 C.ar    1  UNL1        0.2250
     22 N         138.1441  141.8207  163.4976 N.ar    1  UNL1       -0.2104
     23 C         138.4678  140.3747  163.2649 C.ar    1  UNL1        0.1002
     24 O         137.7049  144.2062  162.5666 O.3     1  UNL1       -0.4575
     25 C         138.6407  145.0653  163.3643 C.3     1  UNL1        0.2387
     26 C         140.0186  145.3544  162.8467 C.3     1  UNL1        0.1848
     27 O         140.2891  146.6304  162.1060 O.3     1  UNL1       -0.3784
     28 H         139.7985  146.6288  161.2693 H       1  UNL1        0.2106
     29 N         144.2914  143.1138  164.3464 N.3     1  UNL1       -0.2926
     30 H         144.0765  144.1106  164.3692 H       1  UNL1        0.1236
     31 C         144.7400  142.7994  162.9500 C.3     1  UNL1        0.1152
     32 O         140.0335  146.5071  157.9649 O.2     1  UNL1       -0.2707
     33 C         140.6028  145.2304  158.5089 C.2     1  UNL1        0.2718
     34 C         140.1724  143.9129  157.9354 C.3     1  UNL1        0.2898
     35 O         140.7416  142.6362  158.4794 O.3     1  UNL1       -0.4628
     36 C         141.7412  142.6770  159.5971 C.ar    1  UNL1        0.1708
     37 C         142.3105  141.4003  160.1411 C.ar    1  UNL1        0.0411
     38 C         143.3100  141.4411  161.2587 C.ar    1  UNL1        0.0193
     39 C         143.7405  142.7586  161.8323 C.ar    1  UNL1        0.0765
     40 N         143.1712  144.0353  161.2883 N.ar    1  UNL1       -0.2304
     41 C         142.1716  143.9945  160.1706 C.ar    1  UNL1        0.1682
     42 N         141.6024  145.2712  159.6265 N.am    1  UNL1       -0.2639
     43 H         141.8848  146.1359  160.0030 H       1  UNL1        0.1565
@<TRIPOS>BOND
     1    32    33    2
     2    33    34    1
     3    34    35    1
     4    35    36    1
     5    36    37   ar
     6    37    38   ar
     7    38    39   ar
     8    39    31    1
     9    31    29    1
    10    29     1    1
    11     1     2    1
    12     2     3    1
    13     3     4    1
    14     4     9    1
    15     9    10    1
    16     9    12    1
    17    12    13    1
    18    13    14   ar
    19    14    15    1
    20    14    16   ar
    21    16    17   ar
    22    17    18   ar
    23    18    19   ar
    24    19    20   ar
    25    20    21   ar
    26    21    24    1
    27    24    25    1
    28    25    26    1
    29    26    27    1
    30    21    22   ar
    31    22    23   ar
    32     4     5    1
    33     5     6    1
    34     4     7    1
    35     7     8    1
    36    39    40   ar
    37    40    41   ar
    38    41    42    1
    39    42    33   am
    40    41    36   ar
    41     6     1    1
    42     8     1    1
    43    23    13   ar
    44    23    18   ar
    45    29    30    1
    46    10    11    1
    47    27    28    1
    48    42    43    1
@<TRIPOS>MOLECULE
*****
 43 48 0 0 0
SMALL
GASTEIGER

@<TRIPOS>ATOM
      1 C         138.3163  140.2078  165.0275 C.3     1  UNL1        0.0700
      2 C         137.7486  140.4482  163.6600 C.3     1  UNL1        0.0194
      3 C         137.8989  141.7923  163.0113 C.3     1  UNL1        0.0310
      4 C         138.6168  142.8960  163.7300 C.3     1  UNL1        0.1177
      5 C         139.1844  142.6556  165.0975 C.3     1  UNL1        0.0310
      6 C         139.0342  141.3114  165.7462 C.3     1  UNL1        0.0194
      7 O         138.5594  142.1763  164.1260 O.3     1  UNL1       -0.3548
      8 C         138.4236  140.9610  164.7126 C.3     1  UNL1        0.1563
      9 C         138.7670  144.2401  163.0813 C.3     1  UNL1        0.1396
     10 O         137.5784  144.9080  162.4559 O.3     1  UNL1       -0.3817
     11 H         136.7981  144.3408  162.5576 H       1  UNL1        0.2105
     12 C         140.1057  144.9162  163.0580 C.3     1  UNL1        0.0619
     13 C         141.1915  144.3994  162.1614 C.ar    1  UNL1        0.0285
     14 C         141.0708  144.5498  160.6738 C.ar    1  UNL1        0.1567
     15 F         139.8643  145.2171  160.0829 F       1  UNL1       -0.2028
     16 C         142.1565  144.0330  159.7772 C.ar    1  UNL1        0.1281
     17 N         143.3630  143.3658  160.3681 N.ar    1  UNL1       -0.2400
     18 C         143.4838  143.2153  161.8556 C.ar    1  UNL1        0.0990
     19 C         144.6903  142.5481  162.4465 C.ar    1  UNL1        0.0254
     20 C         144.8110  142.3977  163.9341 C.ar    1  UNL1        0.0593
     21 C         143.7252  142.9145  164.8307 C.ar    1  UNL1        0.2250
     22 N         142.5187  143.5817  164.2398 N.ar    1  UNL1       -0.2104
     23 C         142.3980  143.7322  162.7523 C.ar    1  UNL1        0.1002
     24 O         143.8460  142.7641  166.3182 O.3     1  UNL1       -0.4575
     25 C         142.7388  142.1206  167.0993 C.3     1  UNL1        0.2387
     26 C         142.9152  141.8461  168.5634 C.3     1  UNL1        0.1848
     27 O         142.9570  142.9839  169.5400 O.3     1  UNL1       -0.3784
     28 H         143.7494  143.5195  169.3787 H       1  UNL1        0.2106
     29 N         138.1661  138.8637  165.6762 N.3     1  UNL1       -0.2926
     30 H         138.3024  139.0031  166.6774 H       1  UNL1        0.1236
     31 C         139.0619  137.7309  165.2708 C.3     1  UNL1        0.1152
     32 O         143.1226  138.1290  158.6299 O.2     1  UNL1       -0.2707
     33 C         143.0532  138.2772  160.1209 C.2     1  UNL1        0.2718
     34 C         144.2678  138.7063  160.8894 C.3     1  UNL1        0.2898
     35 O         144.1983  138.8545  162.3804 O.3     1  UNL1       -0.4628
     36 C         142.9142  138.5736  163.1030 C.ar    1  UNL1        0.1708
     37 C         142.8447  138.7219  164.5941 C.ar    1  UNL1        0.0411
     38 C         141.5607  138.4410  165.3167 C.ar    1  UNL1        0.0193
     39 C         140.3460  138.0118  164.5482 C.ar    1  UNL1        0.0765
     40 N         140.4154  137.8636  163.0572 N.ar    1  UNL1       -0.2304
     41 C         141.6996  138.1445  162.3346 C.ar    1  UNL1        0.1682
     42 N         141.7691  137.9963  160.8435 N.am    1  UNL1       -0.2639
     43 H         140.9719  137.7147  160.3392 H       1  UNL1        0.1565
@<TRIPOS>BOND
     1    32    33    2
     2    33    34    1
     3    34    35    1
     4    35    36    1
     5    36    37   ar
     6    37    38   ar
     7    38    39   ar
     8    39    31    1
     9    31    29    1
    10    29     1    1
    11     1     2    1
    12     2     3    1
    13     3     4    1
    14     4     9    1
    15     9    10    1
    16     9    12    1
    17    12    13    1
    18    13    14   ar
    19    14    15    1
    20    14    16   ar
    21    16    17   ar
    22    17    18   ar
    23    18    19   ar
    24    19    20   ar
    25    20    21   ar
    26    21    24    1
    27    24    25    1
    28    25    26    1
    29    26    27    1
    30    21    22   ar
    31    22    23   ar
    32     4     5    1
    33     5     6    1
    34     4     7    1
    35     7     8    1
    36    39    40   ar
    37    40    41   ar
    38    41    42    1
    39    42    33   am
    40    41    36   ar
    41     6     1    1
    42     8     1    1
    43    23    13   ar
    44    23    18   ar
    45    29    30    1
    46    10    11    1
    47    27    28    1
    48    42    43    1
@<TRIPOS>MOLECULE
*****
 43 48 0 0 0
SMALL
GASTEIGER

@<TRIPOS>ATOM
      1 C         142.3255  137.8075  162.5724 C.3     1  UNL1        0.0700
      2 C         140.9420  137.6359  162.0187 C.3     1  UNL1        0.0194
      3 C         139.7515  137.7627  162.9223 C.3     1  UNL1        0.0310
      4 C         139.9444  138.0611  164.3796 C.3     1  UNL1        0.1177
      5 C         141.3279  138.2327  164.9333 C.3     1  UNL1        0.0310
      6 C         142.5185  138.1059  164.0296 C.3     1  UNL1        0.0194
      7 O         140.6273  138.0008  163.9236 O.3     1  UNL1       -0.3548
      8 C         141.7039  137.8861  163.1065 C.3     1  UNL1        0.1563
      9 C         138.7539  138.1879  165.2832 C.3     1  UNL1        0.1396
     10 O         138.1943  136.9726  165.9614 O.3     1  UNL1       -0.3817
     11 H         138.7149  136.1936  165.7101 H       1  UNL1        0.2105
     12 C         138.1230  139.5299  165.5087 C.3     1  UNL1        0.0619
     13 C         138.9752  140.7057  165.8846 C.ar    1  UNL1        0.0285
     14 C         139.7081  140.7129  167.1934 C.ar    1  UNL1        0.1567
     15 F         139.5888  139.5443  168.1263 F       1  UNL1       -0.2028
     16 C         140.5603  141.8886  167.5693 C.ar    1  UNL1        0.1281
     17 N         140.6797  143.0572  166.6365 N.ar    1  UNL1       -0.2400
     18 C         139.9468  143.0500  165.3278 C.ar    1  UNL1        0.0990
     19 C         140.0661  144.2186  164.3949 C.ar    1  UNL1        0.0254
     20 C         139.3332  144.2114  163.0862 C.ar    1  UNL1        0.0593
     21 C         138.4810  143.0357  162.7102 C.ar    1  UNL1        0.2250
     22 N         138.3617  141.8671  163.6431 N.ar    1  UNL1       -0.2104
     23 C         139.0945  141.8742  164.9518 C.ar    1  UNL1        0.1002
     24 O         137.7482  143.0285  161.4015 O.3     1  UNL1       -0.4575
     25 C         138.4939  142.7711  160.1257 C.3     1  UNL1        0.2387
     26 C         139.0747  141.4144  159.8572 C.3     1  UNL1        0.1848
     27 O         139.6579  140.6121  160.9825 O.3     1  UNL1       -0.3784
     28 H         140.4464  141.0613  161.3251 H       1  UNL1        0.2106
     29 N         143.5160  137.6808  161.6688 N.3     1  UNL1       -0.2926
     30 H         144.3323  137.5719  162.2707 H       1  UNL1        0.1236
     31 C         143.8388  138.7755  160.6953 C.3     1  UNL1        0.1152
     32 O         144.9089  144.4697  165.9088 O.2     1  UNL1       -0.2707
     33 C         144.3956  144.0070  164.5775 C.2     1  UNL1        0.2718
     34 C         143.7257  144.9796  163.6527 C.3     1  UNL1        0.2898
     35 O         143.2124  144.5168  162.3214 O.3     1  UNL1       -0.4628
     36 C         143.3690  143.0815  161.9149 C.ar    1  UNL1        0.1708
     37 C         142.8557  142.6188  160.5835 C.ar    1  UNL1        0.0411
     38 C         143.0123  141.1835  160.1770 C.ar    1  UNL1        0.0193
     39 C         143.6822  140.2108  161.1018 C.ar    1  UNL1        0.0765
     40 N         144.1955  140.6735  162.4332 N.ar    1  UNL1       -0.2304
     41 C         144.0389  142.1089  162.8397 C.ar    1  UNL1        0.1682
     42 N         144.5522  142.5717  164.1710 N.am    1  UNL1       -0.2639
     43 H         144.9918  141.9333  164.7779 H       1  UNL1        0.1565
@<TRIPOS>BOND
     1    32    33    2
     2    33    34    1
     3    34    35    1
     4    35    36    1
     5    36    37   ar
     6    37    38   ar
     7    38    39   ar
     8    39    31    1
     9    31    29    1
    10    29     1    1
    11     1     2    1
    12     2     3    1
    13     3     4    1
    14     4     9    1
    15     9    10    1
    16     9    12    1
    17    12    13    1
    18    13    14   ar
    19    14    15    1
    20    14    16   ar
    21    16    17   ar
    22    17    18   ar
    23    18    19   ar
    24    19    20   ar
    25    20    21   ar
    26    21    24    1
    27    24    25    1
    28    25    26    1
    29    26    27    1
    30    21    22   ar
    31    22    23   ar
    32     4     5    1
    33     5     6    1
    34     4     7    1
    35     7     8    1
    36    39    40   ar
    37    40    41   ar
    38    41    42    1
    39    42    33   am
    40    41    36   ar
    41     6     1    1
    42     8     1    1
    43    23    13   ar
    44    23    18   ar
    45    29    30    1
    46    10    11    1
    47    27    28    1
    48    42    43    1
@<TRIPOS>MOLECULE
*****
 43 48 0 0 0
SMALL
GASTEIGER

@<TRIPOS>ATOM
      1 C         143.5817  143.3619  164.4542 C.3     1  UNL1        0.0700
      2 C         143.2487  144.6975  163.8581 C.3     1  UNL1        0.0194
      3 C         141.8198  145.1460  163.7738 C.3     1  UNL1        0.0310
      4 C         140.7238  144.2588  164.2855 C.3     1  UNL1        0.1177
      5 C         141.0568  142.9232  164.8816 C.3     1  UNL1        0.0310
      6 C         142.4857  142.4748  164.9659 C.3     1  UNL1        0.0194
      7 O         141.4919  143.9700  164.3532 O.3     1  UNL1       -0.3548
      8 C         142.7839  143.5644  164.4295 C.3     1  UNL1        0.1563
      9 C         139.2950  144.7073  164.2011 C.3     1  UNL1        0.1396
     10 O         138.6653  145.4268  165.3569 O.3     1  UNL1       -0.3817
     11 H         139.3138  145.5194  166.0722 H       1  UNL1        0.2105
     12 C         138.4958  144.4363  162.9610 C.3     1  UNL1        0.0619
     13 C         138.2375  143.0233  162.5291 C.ar    1  UNL1        0.0285
     14 C         137.7462  142.0131  163.5232 C.ar    1  UNL1        0.1567
     15 F         137.5133  142.4159  164.9492 F       1  UNL1       -0.2028
     16 C         137.4879  140.6000  163.0913 C.ar    1  UNL1        0.1281
     17 N         137.7207  140.1972  161.6653 N.ar    1  UNL1       -0.2400
     18 C         138.2120  141.2073  160.6712 C.ar    1  UNL1        0.0990
     19 C         138.4448  140.8045  159.2452 C.ar    1  UNL1        0.0254
     20 C         138.9361  141.8147  158.2511 C.ar    1  UNL1        0.0593
     21 C         139.1944  143.2277  158.6830 C.ar    1  UNL1        0.2250
     22 N         138.9615  143.6306  160.1090 N.ar    1  UNL1       -0.2104
     23 C         138.4703  142.6204  161.1031 C.ar    1  UNL1        0.1002
     24 O         139.6856  144.2379  157.6889 O.3     1  UNL1       -0.4575
     25 C         140.3149  145.5137  158.1646 C.3     1  UNL1        0.2387
     26 C         141.6680  145.4869  158.8116 C.3     1  UNL1        0.1848
     27 O         141.7853  145.3294  160.2987 O.3     1  UNL1       -0.3784
     28 H         141.4112  146.1097  160.7370 H       1  UNL1        0.2106
     29 N         145.0105  142.9135  164.5386 N.3     1  UNL1       -0.2926
     30 H         145.5872  143.7230  164.3096 H       1  UNL1        0.1236
     31 C         145.4932  141.7814  163.6809 C.3     1  UNL1        0.1152
     32 O         142.5797  137.1799  158.1053 O.2     1  UNL1       -0.2707
     33 C         143.0063  138.5383  158.5772 C.2     1  UNL1        0.2718
     34 C         142.8883  139.7212  157.6626 C.3     1  UNL1        0.2898
     35 O         143.3150  141.0797  158.1345 O.3     1  UNL1       -0.4628
     36 C         143.8595  141.2551  159.5211 C.ar    1  UNL1        0.1708
     37 C         144.2861  142.6135  159.9930 C.ar    1  UNL1        0.0411
     38 C         144.8307  142.7890  161.3795 C.ar    1  UNL1        0.0193
     39 C         144.9487  141.6060  162.2943 C.ar    1  UNL1        0.0765
     40 N         144.5220  140.2476  161.8224 N.ar    1  UNL1       -0.2304
     41 C         143.9775  140.0721  160.4357 C.ar    1  UNL1        0.1682
     42 N         143.5508  138.7137  159.9638 N.am    1  UNL1       -0.2639
     43 H         143.6282  137.9373  160.5641 H       1  UNL1        0.1565
@<TRIPOS>BOND
     1    32    33    2
     2    33    34    1
     3    34    35    1
     4    35    36    1
     5    36    37   ar
     6    37    38   ar
     7    38    39   ar
     8    39    31    1
     9    31    29    1
    10    29     1    1
    11     1     2    1
    12     2     3    1
    13     3     4    1
    14     4     9    1
    15     9    10    1
    16     9    12    1
    17    12    13    1
    18    13    14   ar
    19    14    15    1
    20    14    16   ar
    21    16    17   ar
    22    17    18   ar
    23    18    19   ar
    24    19    20   ar
    25    20    21   ar
    26    21    24    1
    27    24    25    1
    28    25    26    1
    29    26    27    1
    30    21    22   ar
    31    22    23   ar
    32     4     5    1
    33     5     6    1
    34     4     7    1
    35     7     8    1
    36    39    40   ar
    37    40    41   ar
    38    41    42    1
    39    42    33   am
    40    41    36   ar
    41     6     1    1
    42     8     1    1
    43    23    13   ar
    44    23    18   ar
    45    29    30    1
    46    10    11    1
    47    27    28    1
    48    42    43    1
