@<TRIPOS>MOLECULE
*****
 32 36 0 0 0
SMALL
GASTEIGER

@<TRIPOS>ATOM
      1 N         139.6162  137.8729  164.5390 N.3     1  UNL1       -0.2724
      2 C         139.0904  137.9763  163.1380 C.3     1  UNL1        0.0726
      3 C         140.0441  138.0456  161.9823 C.3     1  UNL1        0.0260
      4 C         141.5235  138.0114  162.2277 C.3     1  UNL1        0.0737
      5 C         142.0492  137.9080  163.6287 C.3     1  UNL1        0.0260
      6 C         141.0956  137.8388  164.7844 C.3     1  UNL1        0.0726
      7 C         143.0207  137.9879  162.3173 C.3     1  UNL1        0.0306
      8 C         143.5700  138.0784  160.9244 C.3     1  UNL1        0.1001
      9 N         142.4122  138.1578  159.9738 N.am    1  UNL1       -0.2425
     10 C         141.1475  138.1164  160.7793 C.2     1  UNL1        0.2296
     11 O         139.7518  138.1705  160.2325 O.2     1  UNL1       -0.2745
     12 C         142.5033  138.2605  158.4802 C.ar    1  UNL1        0.1574
     13 C         141.9399  139.4585  157.7751 C.ar    1  UNL1        0.0414
     14 C         142.0310  139.5612  156.2814 C.ar    1  UNL1        0.0651
     15 C         142.6855  138.4659  155.4928 C.ar    1  UNL1        0.2766
     16 O         142.7765  138.5686  153.9990 O.2     1  UNL1       -0.2655
     17 N         143.2489  137.2678  156.1979 N.ar    1  UNL1       -0.2134
     18 C         143.9034  136.1724  155.4093 C.3     1  UNL1        0.1571
     19 N         143.1578  137.1651  157.6916 N.ar    1  UNL1       -0.1513
     20 C         138.6625  137.8036  165.6948 C.3     1  UNL1        0.0768
     21 C         138.0425  139.0594  166.2319 C.3     1  UNL1        0.0433
     22 C         140.0988  141.1779  165.6992 C.3     1  UNL1        0.0305
     23 C         139.7150  140.8431  167.1101 C.ar    1  UNL1       -0.0260
     24 C         138.6869  139.7839  167.3765 C.ar    1  UNL1       -0.0249
     25 C         138.3032  139.4491  168.7874 C.ar    1  UNL1       -0.0043
     26 C         138.9476  140.1735  169.9319 C.ar    1  UNL1        0.0059
     27 C         139.9757  141.2327  169.6655 C.ar    1  UNL1        0.0748
     28 C         140.3594  141.5675  168.2546 C.ar    1  UNL1        0.0233
     29 C         141.3964  142.6504  168.3008 C.3     1  UNL1        0.2352
     30 O         141.6535  142.9849  169.7402 O.3     1  UNL1       -0.4404
     31 C         140.7755  142.1087  170.5836 C.2     1  UNL1        0.3413
     32 O         140.7089  142.1085  172.0822 O.2     1  UNL1       -0.2449
@<TRIPOS>BOND
     1    22    23    1
     2    23    24   ar
     3    24    21    1
     4    21    20    1
     5    20     1    1
     6     1     2    1
     7     2     3    1
     8     3     4    1
     9     4     5    1
    10     5     6    1
    11     4     7    1
    12     7     8    1
    13     8     9    1
    14     9    12    1
    15    12    13   ar
    16    13    14   ar
    17    14    15   ar
    18    15    16    2
    19    15    17   ar
    20    17    18    1
    21    17    19   ar
    22     9    10   am
    23    10    11    2
    24    24    25   ar
    25    25    26   ar
    26    26    27   ar
    27    27    28   ar
    28    28    29    1
    29    29    30    1
    30    30    31    1
    31    31    32    2
    32    28    23   ar
    33     6     1    1
    34    19    12   ar
    35    31    27    1
    36    10     4    1
@<TRIPOS>MOLECULE
*****
 32 36 0 0 0
SMALL
GASTEIGER

@<TRIPOS>ATOM
      1 N         138.7327  139.2045  164.9868 N.3     1  UNL1       -0.2724
      2 C         138.1097  140.3718  164.2803 C.3     1  UNL1        0.0726
      3 C         138.0969  140.4213  162.7812 C.3     1  UNL1        0.0260
      4 C         138.7071  139.3036  161.9886 C.3     1  UNL1        0.0737
      5 C         139.3301  138.1363  162.6951 C.3     1  UNL1        0.0260
      6 C         139.3429  138.0867  164.1942 C.3     1  UNL1        0.0726
      7 C         139.2756  138.2654  161.0672 C.3     1  UNL1        0.0306
      8 C         139.0434  138.7202  159.6567 C.3     1  UNL1        0.1001
      9 N         138.3313  140.0395  159.7064 N.am    1  UNL1       -0.2425
     10 C         138.1235  140.4001  161.1475 C.2     1  UNL1        0.2296
     11 O         137.4503  141.6394  161.6581 O.2     1  UNL1       -0.2745
     12 C         137.9024  140.8551  158.5229 C.ar    1  UNL1        0.1574
     13 C         138.6159  142.1330  158.1944 C.ar    1  UNL1        0.0414
     14 C         138.1869  142.9485  157.0108 C.ar    1  UNL1        0.0651
     15 C         137.0446  142.4862  156.1557 C.ar    1  UNL1        0.2766
     16 O         136.6157  143.3018  154.9721 O.2     1  UNL1       -0.2655
     17 N         136.3311  141.2082  156.4842 N.ar    1  UNL1       -0.2134
     18 C         135.1887  140.7459  155.6290 C.3     1  UNL1        0.1571
     19 N         136.7601  140.3927  157.6678 N.ar    1  UNL1       -0.1513
     20 C         138.7455  139.1549  166.4859 C.3     1  UNL1        0.0768
     21 C         139.8409  139.8382  167.2496 C.3     1  UNL1        0.0433
     22 C         140.1291  142.6947  166.3793 C.3     1  UNL1        0.0305
     23 C         141.2289  141.7123  166.1045 C.ar    1  UNL1       -0.0260
     24 C         141.0848  140.2841  166.5396 C.ar    1  UNL1       -0.0249
     25 C         142.1846  139.3018  166.2647 C.ar    1  UNL1       -0.0043
     26 C         143.4284  139.7476  165.5548 C.ar    1  UNL1        0.0059
     27 C         143.5724  141.1759  165.1197 C.ar    1  UNL1        0.0748
     28 C         142.4727  142.1582  165.3945 C.ar    1  UNL1        0.0233
     29 C         142.8950  143.4909  164.8507 C.3     1  UNL1        0.2352
     30 O         144.2557  143.3322  164.2397 O.3     1  UNL1       -0.4404
     31 C         144.6743  141.9014  164.4060 C.2     1  UNL1        0.3413
     32 O         145.9679  141.3015  163.9403 O.2     1  UNL1       -0.2449
@<TRIPOS>BOND
     1    22    23    1
     2    23    24   ar
     3    24    21    1
     4    21    20    1
     5    20     1    1
     6     1     2    1
     7     2     3    1
     8     3     4    1
     9     4     5    1
    10     5     6    1
    11     4     7    1
    12     7     8    1
    13     8     9    1
    14     9    12    1
    15    12    13   ar
    16    13    14   ar
    17    14    15   ar
    18    15    16    2
    19    15    17   ar
    20    17    18    1
    21    17    19   ar
    22     9    10   am
    23    10    11    2
    24    24    25   ar
    25    25    26   ar
    26    26    27   ar
    27    27    28   ar
    28    28    29    1
    29    29    30    1
    30    30    31    1
    31    31    32    2
    32    28    23   ar
    33     6     1    1
    34    19    12   ar
    35    31    27    1
    36    10     4    1
@<TRIPOS>MOLECULE
*****
 32 36 0 0 0
SMALL
GASTEIGER

@<TRIPOS>ATOM
      1 N         139.9807  138.2830  161.8959 N.3     1  UNL1       -0.2724
      2 C         139.1952  139.0712  162.9017 C.3     1  UNL1        0.0726
      3 C         139.7823  139.3614  164.2512 C.3     1  UNL1        0.0260
      4 C         141.1548  138.8633  164.5948 C.3     1  UNL1        0.0737
      5 C         141.9403  138.0751  163.5890 C.3     1  UNL1        0.0260
      6 C         141.3532  137.7850  162.2396 C.3     1  UNL1        0.0726
      7 C         142.5078  138.4331  165.0788 C.3     1  UNL1        0.0306
      8 C         142.6811  138.9385  166.4805 C.3     1  UNL1        0.1001
      9 N         141.4352  139.6812  166.8628 N.am    1  UNL1       -0.2425
     10 C         140.4919  139.6347  165.6974 C.2     1  UNL1        0.2296
     11 O         139.1255  140.2513  165.6439 O.2     1  UNL1       -0.2745
     12 C         141.1777  140.3524  168.1792 C.ar    1  UNL1        0.1574
     13 C         139.9453  140.0150  168.9648 C.ar    1  UNL1        0.0414
     14 C         139.6879  140.6863  170.2813 C.ar    1  UNL1        0.0651
     15 C         140.6629  141.6950  170.8122 C.ar    1  UNL1        0.2766
     16 O         140.4055  142.3663  172.1287 O.2     1  UNL1       -0.2655
     17 N         141.8954  142.0325  170.0265 N.ar    1  UNL1       -0.2134
     18 C         142.8705  143.0412  170.5574 C.3     1  UNL1        0.1571
     19 N         142.1528  141.3611  168.7101 N.ar    1  UNL1       -0.1513
     20 C         139.3937  137.9928  160.5463 C.3     1  UNL1        0.0768
     21 C         139.5648  138.9763  159.4268 C.3     1  UNL1        0.0433
     22 C         142.3193  140.1542  159.5876 C.3     1  UNL1        0.0305
     23 C         141.1175  141.0238  159.8104 C.ar    1  UNL1       -0.0260
     24 C         139.7403  140.4349  159.7300 C.ar    1  UNL1       -0.0249
     25 C         138.5386  141.3045  159.9527 C.ar    1  UNL1       -0.0043
     26 C         138.7140  142.7630  160.2559 C.ar    1  UNL1        0.0059
     27 C         140.0912  143.3519  160.3364 C.ar    1  UNL1        0.0748
     28 C         141.2930  142.4823  160.1136 C.ar    1  UNL1        0.0233
     29 C         142.5169  143.3378  160.2554 C.3     1  UNL1        0.2352
     30 O         142.0716  144.7361  160.5658 O.3     1  UNL1       -0.4404
     31 C         140.5724  144.7448  160.6159 C.2     1  UNL1        0.3413
     32 O         139.7065  145.9371  160.8962 O.2     1  UNL1       -0.2449
@<TRIPOS>BOND
     1    22    23    1
     2    23    24   ar
     3    24    21    1
     4    21    20    1
     5    20     1    1
     6     1     2    1
     7     2     3    1
     8     3     4    1
     9     4     5    1
    10     5     6    1
    11     4     7    1
    12     7     8    1
    13     8     9    1
    14     9    12    1
    15    12    13   ar
    16    13    14   ar
    17    14    15   ar
    18    15    16    2
    19    15    17   ar
    20    17    18    1
    21    17    19   ar
    22     9    10   am
    23    10    11    2
    24    24    25   ar
    25    25    26   ar
    26    26    27   ar
    27    27    28   ar
    28    28    29    1
    29    29    30    1
    30    30    31    1
    31    31    32    2
    32    28    23   ar
    33     6     1    1
    34    19    12   ar
    35    31    27    1
    36    10     4    1
@<TRIPOS>MOLECULE
*****
 32 36 0 0 0
SMALL
GASTEIGER

@<TRIPOS>ATOM
      1 N         139.5792  138.1373  164.2849 N.3     1  UNL1       -0.2724
      2 C         139.1015  138.1949  162.8642 C.3     1  UNL1        0.0726
      3 C         140.0927  138.1808  161.7385 C.3     1  UNL1        0.0260
      4 C         141.5616  138.1091  162.0335 C.3     1  UNL1        0.0737
      5 C         142.0394  138.0514  163.4542 C.3     1  UNL1        0.0260
      6 C         141.0482  138.0656  164.5799 C.3     1  UNL1        0.0726
      7 C         143.0535  138.0404  162.1732 C.3     1  UNL1        0.0306
      8 C         143.6490  138.0500  160.7964 C.3     1  UNL1        0.1001
      9 N         142.5250  138.1247  159.8058 N.am    1  UNL1       -0.2425
     10 C         141.2350  138.1612  160.5704 C.2     1  UNL1        0.2296
     11 O         139.8598  138.2366  159.9762 O.2     1  UNL1       -0.2745
     12 C         142.6662  138.1572  158.3129 C.ar    1  UNL1        0.1574
     13 C         142.2936  139.3944  157.5511 C.ar    1  UNL1        0.0414
     14 C         142.4348  139.4269  156.0581 C.ar    1  UNL1        0.0651
     15 C         142.9488  138.2222  155.3269 C.ar    1  UNL1        0.2766
     16 O         143.0901  138.2547  153.8339 O.2     1  UNL1       -0.2655
     17 N         143.3215  136.9849  156.0888 N.ar    1  UNL1       -0.2134
     18 C         143.8354  135.7802  155.3577 C.3     1  UNL1        0.1571
     19 N         143.1802  136.9525  157.5818 N.ar    1  UNL1       -0.1513
     20 C         138.5880  138.1514  165.4107 C.3     1  UNL1        0.0768
     21 C         138.1281  139.4569  165.9888 C.3     1  UNL1        0.0433
     22 C         140.5209  141.1498  166.6281 C.3     1  UNL1        0.0305
     23 C         139.5615  141.5806  165.5586 C.ar    1  UNL1       -0.0260
     24 C         138.3652  140.7342  165.2389 C.ar    1  UNL1       -0.0249
     25 C         137.4058  141.1651  164.1694 C.ar    1  UNL1       -0.0043
     26 C         137.6428  142.4423  163.4195 C.ar    1  UNL1        0.0059
     27 C         138.8391  143.2887  163.7391 C.ar    1  UNL1        0.0748
     28 C         139.7985  142.8579  164.8087 C.ar    1  UNL1        0.0233
     29 C         140.8820  143.8909  164.9029 C.3     1  UNL1        0.2352
     30 O         140.5923  144.9602  163.8917 O.3     1  UNL1       -0.4404
     31 C         139.3297  144.5880  163.1724 C.2     1  UNL1        0.3413
     32 O         138.6730  145.3767  162.0784 O.2     1  UNL1       -0.2449
@<TRIPOS>BOND
     1    22    23    1
     2    23    24   ar
     3    24    21    1
     4    21    20    1
     5    20     1    1
     6     1     2    1
     7     2     3    1
     8     3     4    1
     9     4     5    1
    10     5     6    1
    11     4     7    1
    12     7     8    1
    13     8     9    1
    14     9    12    1
    15    12    13   ar
    16    13    14   ar
    17    14    15   ar
    18    15    16    2
    19    15    17   ar
    20    17    18    1
    21    17    19   ar
    22     9    10   am
    23    10    11    2
    24    24    25   ar
    25    25    26   ar
    26    26    27   ar
    27    27    28   ar
    28    28    29    1
    29    29    30    1
    30    30    31    1
    31    31    32    2
    32    28    23   ar
    33     6     1    1
    34    19    12   ar
    35    31    27    1
    36    10     4    1
@<TRIPOS>MOLECULE
*****
 32 36 0 0 0
SMALL
GASTEIGER

@<TRIPOS>ATOM
      1 N         138.5669  141.1381  164.3917 N.3     1  UNL1       -0.2724
      2 C         138.9683  140.8535  162.9748 C.3     1  UNL1        0.0726
      3 C         139.3578  141.9806  162.0649 C.3     1  UNL1        0.0260
      4 C         139.3458  143.3923  162.5719 C.3     1  UNL1        0.0737
      5 C         138.9443  143.6769  163.9888 C.3     1  UNL1        0.0260
      6 C         138.5549  142.5498  164.8987 C.3     1  UNL1        0.0726
      7 C         139.3816  144.8471  162.9357 C.3     1  UNL1        0.0306
      8 C         139.8258  145.6164  161.7269 C.3     1  UNL1        0.1001
      9 N         140.0645  144.6370  160.6161 N.am    1  UNL1       -0.2425
     10 C         139.7679  143.2625  161.1383 C.2     1  UNL1        0.2296
     11 O         139.8746  141.9828  160.3631 O.2     1  UNL1       -0.2745
     12 C         140.5199  144.9732  159.2271 C.ar    1  UNL1        0.1574
     13 C         141.7941  144.3887  158.6935 C.ar    1  UNL1        0.0414
     14 C         142.2495  144.7249  157.3044 C.ar    1  UNL1        0.0651
     15 C         141.4307  145.6455  156.4489 C.ar    1  UNL1        0.2766
     16 O         141.8861  145.9817  155.0597 O.2     1  UNL1       -0.2655
     17 N         140.1564  146.2300  156.9824 N.ar    1  UNL1       -0.2134
     18 C         139.3376  147.1507  156.1269 C.3     1  UNL1        0.1571
     19 N         139.7011  145.8938  158.3716 N.ar    1  UNL1       -0.1513
     20 C         138.1774  140.0111  165.3017 C.3     1  UNL1        0.0768
     21 C         139.2233  139.3086  166.1156 C.3     1  UNL1        0.0433
     22 C         141.7786  140.8093  165.6479 C.3     1  UNL1        0.0305
     23 C         141.1708  140.7721  167.0187 C.ar    1  UNL1       -0.0260
     24 C         139.8932  140.0218  167.2526 C.ar    1  UNL1       -0.0249
     25 C         139.2854  139.9846  168.6235 C.ar    1  UNL1       -0.0043
     26 C         139.9553  140.6977  169.7604 C.ar    1  UNL1        0.0059
     27 C         141.2328  141.4480  169.5266 C.ar    1  UNL1        0.0748
     28 C         141.8406  141.4852  168.1557 C.ar    1  UNL1        0.0233
     29 C         143.0977  142.3003  168.2280 C.3     1  UNL1        0.2352
     30 O         143.2669  142.7669  169.6435 O.3     1  UNL1       -0.4404
     31 C         142.1144  142.2402  170.4460 C.2     1  UNL1        0.3413
     32 O         141.8838  142.4659  171.9109 O.2     1  UNL1       -0.2449
@<TRIPOS>BOND
     1    22    23    1
     2    23    24   ar
     3    24    21    1
     4    21    20    1
     5    20     1    1
     6     1     2    1
     7     2     3    1
     8     3     4    1
     9     4     5    1
    10     5     6    1
    11     4     7    1
    12     7     8    1
    13     8     9    1
    14     9    12    1
    15    12    13   ar
    16    13    14   ar
    17    14    15   ar
    18    15    16    2
    19    15    17   ar
    20    17    18    1
    21    17    19   ar
    22     9    10   am
    23    10    11    2
    24    24    25   ar
    25    25    26   ar
    26    26    27   ar
    27    27    28   ar
    28    28    29    1
    29    29    30    1
    30    30    31    1
    31    31    32    2
    32    28    23   ar
    33     6     1    1
    34    19    12   ar
    35    31    27    1
    36    10     4    1
@<TRIPOS>MOLECULE
*****
 32 36 0 0 0
SMALL
GASTEIGER

@<TRIPOS>ATOM
      1 N         144.9173  141.5449  163.3324 N.3     1  UNL1       -0.2724
      2 C         144.6978  141.9048  161.8928 C.3     1  UNL1        0.0726
      3 C         144.1618  140.8806  160.9371 C.3     1  UNL1        0.0260
      4 C         143.8452  139.4965  161.4208 C.3     1  UNL1        0.0737
      5 C         144.0646  139.1366  162.8603 C.3     1  UNL1        0.0260
      6 C         144.6007  140.1608  163.8161 C.3     1  UNL1        0.0726
      7 C         143.4847  138.0798  161.7574 C.3     1  UNL1        0.0306
      8 C         142.9922  137.4168  160.5051 C.3     1  UNL1        0.1001
      9 N         143.0483  138.4238  159.3947 N.am    1  UNL1       -0.2425
     10 C         143.5755  139.7090  159.9606 C.2     1  UNL1        0.2296
     11 O         143.7945  140.9831  159.1999 O.2     1  UNL1       -0.2745
     12 C         142.6476  138.1870  157.9688 C.ar    1  UNL1        0.1574
     13 C         141.6683  139.1071  157.3023 C.ar    1  UNL1        0.0414
     14 C         141.2676  138.8703  155.8763 C.ar    1  UNL1        0.0651
     15 C         141.8462  137.7134  155.1168 C.ar    1  UNL1        0.2766
     16 O         141.4455  137.4766  153.6909 O.2     1  UNL1       -0.2655
     17 N         142.8256  136.7932  155.7834 N.ar    1  UNL1       -0.2134
     18 C         143.4042  135.6363  155.0239 C.3     1  UNL1        0.1571
     19 N         143.2263  137.0301  157.2093 N.ar    1  UNL1       -0.1513
     20 C         145.4534  142.5692  164.2882 C.3     1  UNL1        0.0768
     21 C         144.5098  143.3746  165.1314 C.3     1  UNL1        0.0433
     22 C         142.1469  141.8466  166.1716 C.3     1  UNL1        0.0305
     23 C         141.9512  142.9233  165.1458 C.ar    1  UNL1       -0.0260
     24 C         143.1326  143.6874  164.6257 C.ar    1  UNL1       -0.0249
     25 C         142.9369  144.7641  163.5999 C.ar    1  UNL1       -0.0043
     26 C         141.5598  145.0769  163.0942 C.ar    1  UNL1        0.0059
     27 C         140.3784  144.3129  163.6143 C.ar    1  UNL1        0.0748
     28 C         140.5741  143.2361  164.6401 C.ar    1  UNL1        0.0233
     29 C         139.2297  142.6556  164.9650 C.3     1  UNL1        0.2352
     30 O         138.2031  143.3736  164.1401 O.3     1  UNL1       -0.4404
     31 C         138.9131  144.3978  163.3053 C.2     1  UNL1        0.3413
     32 O         138.2705  145.3414  162.3323 O.2     1  UNL1       -0.2449
@<TRIPOS>BOND
     1    22    23    1
     2    23    24   ar
     3    24    21    1
     4    21    20    1
     5    20     1    1
     6     1     2    1
     7     2     3    1
     8     3     4    1
     9     4     5    1
    10     5     6    1
    11     4     7    1
    12     7     8    1
    13     8     9    1
    14     9    12    1
    15    12    13   ar
    16    13    14   ar
    17    14    15   ar
    18    15    16    2
    19    15    17   ar
    20    17    18    1
    21    17    19   ar
    22     9    10   am
    23    10    11    2
    24    24    25   ar
    25    25    26   ar
    26    26    27   ar
    27    27    28   ar
    28    28    29    1
    29    29    30    1
    30    30    31    1
    31    31    32    2
    32    28    23   ar
    33     6     1    1
    34    19    12   ar
    35    31    27    1
    36    10     4    1
@<TRIPOS>MOLECULE
*****
 32 36 0 0 0
SMALL
GASTEIGER

@<TRIPOS>ATOM
      1 N         141.4723  138.4896  164.5386 N.3     1  UNL1       -0.2724
      2 C         141.8328  139.4476  163.4422 C.3     1  UNL1        0.0726
      3 C         140.8361  139.7677  162.3680 C.3     1  UNL1        0.0260
      4 C         139.4787  139.1296  162.3902 C.3     1  UNL1        0.0737
      5 C         139.1181  138.1716  163.4866 C.3     1  UNL1        0.0260
      6 C         140.1149  137.8516  164.5608 C.3     1  UNL1        0.0726
      7 C         138.0904  138.5722  162.2813 C.3     1  UNL1        0.0306
      8 C         137.4488  139.1614  161.0600 C.3     1  UNL1        0.1001
      9 N         138.4407  140.0829  160.4142 N.am    1  UNL1       -0.2425
     10 C         139.6952  140.0633  161.2363 C.2     1  UNL1        0.2296
     11 O         140.9465  140.8408  160.9541 O.2     1  UNL1       -0.2745
     12 C         138.2173  140.8834  159.1656 C.ar    1  UNL1        0.1574
     13 C         138.7621  142.2771  159.0606 C.ar    1  UNL1        0.0414
     14 C         138.5386  143.0776  157.8119 C.ar    1  UNL1        0.0651
     15 C         137.7704  142.4846  156.6682 C.ar    1  UNL1        0.2766
     16 O         137.5470  143.2852  155.4195 O.2     1  UNL1       -0.2655
     17 N         137.2256  141.0909  156.7731 N.ar    1  UNL1       -0.2134
     18 C         136.4574  140.4979  155.6294 C.3     1  UNL1        0.1571
     19 N         137.4491  140.2904  158.0218 N.ar    1  UNL1       -0.1513
     20 C         142.4691  138.1695  165.6129 C.3     1  UNL1        0.0768
     21 C         143.1953  139.2775  166.3164 C.3     1  UNL1        0.0433
     22 C         141.7378  141.8635  165.8825 C.3     1  UNL1        0.0305
     23 C         141.8225  141.2721  167.2584 C.ar    1  UNL1       -0.0260
     24 C         142.5512  139.9791  167.4753 C.ar    1  UNL1       -0.0249
     25 C         142.6359  139.3877  168.8512 C.ar    1  UNL1       -0.0043
     26 C         141.9920  140.0892  170.0101 C.ar    1  UNL1        0.0059
     27 C         141.2632  141.3822  169.7931 C.ar    1  UNL1        0.0748
     28 C         141.1785  141.9736  168.4172 C.ar    1  UNL1        0.0233
     29 C         140.3986  143.2516  168.5093 C.3     1  UNL1        0.2352
     30 O         140.0012  143.4500  169.9420 O.3     1  UNL1       -0.4404
     31 C         140.5356  142.2947  170.7355 C.2     1  UNL1        0.3413
     32 O         140.3713  142.0880  172.2120 O.2     1  UNL1       -0.2449
@<TRIPOS>BOND
     1    22    23    1
     2    23    24   ar
     3    24    21    1
     4    21    20    1
     5    20     1    1
     6     1     2    1
     7     2     3    1
     8     3     4    1
     9     4     5    1
    10     5     6    1
    11     4     7    1
    12     7     8    1
    13     8     9    1
    14     9    12    1
    15    12    13   ar
    16    13    14   ar
    17    14    15   ar
    18    15    16    2
    19    15    17   ar
    20    17    18    1
    21    17    19   ar
    22     9    10   am
    23    10    11    2
    24    24    25   ar
    25    25    26   ar
    26    26    27   ar
    27    27    28   ar
    28    28    29    1
    29    29    30    1
    30    30    31    1
    31    31    32    2
    32    28    23   ar
    33     6     1    1
    34    19    12   ar
    35    31    27    1
    36    10     4    1
@<TRIPOS>MOLECULE
*****
 32 36 0 0 0
SMALL
GASTEIGER

@<TRIPOS>ATOM
      1 N         143.6586  138.9113  162.1317 N.3     1  UNL1       -0.2724
      2 C         142.8511  138.4915  163.3240 C.3     1  UNL1        0.0726
      3 C         142.7576  139.3909  164.5208 C.3     1  UNL1        0.0260
      4 C         143.4716  140.7100  164.5253 C.3     1  UNL1        0.0737
      5 C         144.2792  141.1298  163.3330 C.3     1  UNL1        0.0260
      6 C         144.3727  140.2304  162.1362 C.3     1  UNL1        0.0726
      7 C         144.1274  142.0509  164.6739 C.3     1  UNL1        0.0306
      8 C         143.7670  142.5961  166.0242 C.3     1  UNL1        0.1001
      9 N         142.8885  141.5921  166.7100 N.am    1  UNL1       -0.2425
     10 C         142.7059  140.4265  165.7837 C.2     1  UNL1        0.2296
     11 O         141.8994  139.1938  166.0660 O.2     1  UNL1       -0.2745
     12 C         142.2965  141.7296  168.0813 C.ar    1  UNL1        0.1574
     13 C         143.0476  142.4635  169.1523 C.ar    1  UNL1        0.0414
     14 C         142.4556  142.6010  170.5237 C.ar    1  UNL1        0.0651
     15 C         141.1124  142.0046  170.8240 C.ar    1  UNL1        0.2766
     16 O         140.5204  142.1421  172.1953 O.2     1  UNL1       -0.2655
     17 N         140.3612  141.2707  169.7529 N.ar    1  UNL1       -0.2134
     18 C         139.0180  140.6743  170.0532 C.3     1  UNL1        0.1571
     19 N         140.9533  141.1332  168.3816 N.ar    1  UNL1       -0.1513
     20 C         143.7522  138.0119  160.9349 C.3     1  UNL1        0.0768
     21 C         142.7388  138.1202  159.8343 C.3     1  UNL1        0.0433
     22 C         139.9754  138.4874  160.9430 C.3     1  UNL1        0.0305
     23 C         140.6255  139.5944  160.1671 C.ar    1  UNL1       -0.0260
     24 C         142.0071  139.4109  159.6128 C.ar    1  UNL1       -0.0249
     25 C         142.6572  140.5179  158.8370 C.ar    1  UNL1       -0.0043
     26 C         141.9256  141.8085  158.6155 C.ar    1  UNL1        0.0059
     27 C         140.5440  141.9921  159.1698 C.ar    1  UNL1        0.0748
     28 C         139.8939  140.8850  159.9457 C.ar    1  UNL1        0.0233
     29 C         138.5326  141.3524  160.3682 C.3     1  UNL1        0.2352
     30 O         138.3414  142.7483  159.8535 O.3     1  UNL1       -0.4404
     31 C         139.5844  143.1436  159.1129 C.2     1  UNL1        0.3413
     32 O         139.8257  144.4595  158.4344 O.2     1  UNL1       -0.2449
@<TRIPOS>BOND
     1    22    23    1
     2    23    24   ar
     3    24    21    1
     4    21    20    1
     5    20     1    1
     6     1     2    1
     7     2     3    1
     8     3     4    1
     9     4     5    1
    10     5     6    1
    11     4     7    1
    12     7     8    1
    13     8     9    1
    14     9    12    1
    15    12    13   ar
    16    13    14   ar
    17    14    15   ar
    18    15    16    2
    19    15    17   ar
    20    17    18    1
    21    17    19   ar
    22     9    10   am
    23    10    11    2
    24    24    25   ar
    25    25    26   ar
    26    26    27   ar
    27    27    28   ar
    28    28    29    1
    29    29    30    1
    30    30    31    1
    31    31    32    2
    32    28    23   ar
    33     6     1    1
    34    19    12   ar
    35    31    27    1
    36    10     4    1
@<TRIPOS>MOLECULE
*****
 32 36 0 0 0
SMALL
GASTEIGER

@<TRIPOS>ATOM
      1 N         144.7584  141.4328  162.6572 N.3     1  UNL1       -0.2724
      2 C         144.3138  140.0136  162.4616 C.3     1  UNL1        0.0726
      3 C         143.8732  139.5458  161.1063 C.3     1  UNL1        0.0260
      4 C         143.8772  140.4970  159.9465 C.3     1  UNL1        0.0737
      5 C         144.3218  141.9162  160.1421 C.3     1  UNL1        0.0260
      6 C         144.7624  142.3841  161.4974 C.3     1  UNL1        0.0726
      7 C         143.8278  141.3292  158.6995 C.3     1  UNL1        0.0306
      8 C         143.3287  140.4613  157.5824 C.3     1  UNL1        0.1001
      9 N         143.0697  139.0926  158.1392 N.am    1  UNL1       -0.2425
     10 C         143.4087  139.1147  159.6002 C.2     1  UNL1        0.2296
     11 O         143.2985  137.9578  160.5485 O.2     1  UNL1       -0.2745
     12 C         142.5610  137.9097  157.3699 C.ar    1  UNL1        0.1574
     13 C         141.2942  138.0207  156.5744 C.ar    1  UNL1        0.0414
     14 C         140.7856  136.8377  155.8051 C.ar    1  UNL1        0.0651
     15 C         141.5437  135.5437  155.8314 C.ar    1  UNL1        0.2766
     16 O         141.0350  134.3607  155.0621 O.2     1  UNL1       -0.2655
     17 N         142.8106  135.4326  156.6269 N.ar    1  UNL1       -0.2134
     18 C         143.5687  134.1386  156.6531 C.3     1  UNL1        0.1571
     19 N         143.3192  136.6157  157.3962 N.ar    1  UNL1       -0.1513
     20 C         145.1990  141.9007  164.0125 C.3     1  UNL1        0.0768
     21 C         144.3079  142.7938  164.8239 C.3     1  UNL1        0.0433
     22 C         143.6329  145.2906  163.3040 C.3     1  UNL1        0.0305
     23 C         142.5587  144.2936  163.6234 C.ar    1  UNL1       -0.0260
     24 C         142.8962  143.0452  164.3834 C.ar    1  UNL1       -0.0249
     25 C         141.8220  142.0482  164.7029 C.ar    1  UNL1       -0.0043
     26 C         140.4104  142.2995  164.2624 C.ar    1  UNL1        0.0059
     27 C         140.0729  143.5479  163.5025 C.ar    1  UNL1        0.0748
     28 C         141.1471  144.5449  163.1830 C.ar    1  UNL1        0.0233
     29 C         140.5186  145.6766  162.4251 C.3     1  UNL1        0.2352
     30 O         139.0560  145.3790  162.2761 O.3     1  UNL1       -0.4404
     31 C         138.7806  144.0634  162.9420 C.2     1  UNL1        0.3413
     32 O         137.4469  143.3827  163.0317 O.2     1  UNL1       -0.2449
@<TRIPOS>BOND
     1    22    23    1
     2    23    24   ar
     3    24    21    1
     4    21    20    1
     5    20     1    1
     6     1     2    1
     7     2     3    1
     8     3     4    1
     9     4     5    1
    10     5     6    1
    11     4     7    1
    12     7     8    1
    13     8     9    1
    14     9    12    1
    15    12    13   ar
    16    13    14   ar
    17    14    15   ar
    18    15    16    2
    19    15    17   ar
    20    17    18    1
    21    17    19   ar
    22     9    10   am
    23    10    11    2
    24    24    25   ar
    25    25    26   ar
    26    26    27   ar
    27    27    28   ar
    28    28    29    1
    29    29    30    1
    30    30    31    1
    31    31    32    2
    32    28    23   ar
    33     6     1    1
    34    19    12   ar
    35    31    27    1
    36    10     4    1
