@<TRIPOS>MOLECULE
*****
 30 32 0 0 0
SMALL
GASTEIGER

@<TRIPOS>ATOM
      1 N         139.3066  138.8465  164.9166 N.4     1  UNL1        0.3055
      2 C         140.1450  137.6098  164.7837 C.3     1  UNL1        0.1708
      3 C         138.1869  139.7519  165.3367 C.3     1  UNL1        0.1139
      4 C         138.1683  141.1817  164.8836 C.3     1  UNL1        0.0879
      5 C         139.2694  141.7061  164.0104 C.ar    1  UNL1       -0.0026
      6 C         140.3891  140.8007  163.5903 C.ar    1  UNL1        0.0598
      7 S         141.3296  141.5940  162.7322 S.2     1  UNL1       -0.0709
      8 C         140.7911  142.9897  162.6220 C.ar    1  UNL1        0.0858
      9 C         139.5178  143.0589  163.4120 C.ar    1  UNL1        0.0694
     10 C         140.4077  139.3709  164.0434 C.3     1  UNL1        0.1425
     11 N         141.4161  144.1180  161.8563 N.am    1  UNL1       -0.2629
     12 C         141.1130  144.2931  160.3977 C.2     1  UNL1        0.3085
     13 O         140.1848  143.3398  159.7048 O.2     1  UNL1       -0.2521
     14 N         141.7379  145.4213  159.6319 N.am    1  UNL1       -0.2680
     15 H         142.0252  144.7436  162.3110 H       1  UNL1        0.1569
     16 H         142.3470  146.0470  160.0867 H       1  UNL1        0.1564
     17 C         141.4348  145.5964  158.1733 C.ar    1  UNL1        0.0516
     18 C         142.3994  145.0926  157.1411 C.ar    1  UNL1        0.0156
     19 C         142.0963  145.2677  155.6825 C.ar    1  UNL1        0.0127
     20 C         140.8285  145.9466  155.2562 C.ar    1  UNL1        0.0578
     21 CL        140.5254  146.1217  153.7976 Cl      1  UNL1       -0.0822
     22 C         139.8639  146.4504  156.2884 C.ar    1  UNL1        0.0127
     23 C         140.1670  146.2753  157.7470 C.ar    1  UNL1        0.0156
     24 C         138.6461  144.2687  163.5750 C.2     1  UNL1        0.2442
     25 N         137.7036  144.6672  162.4782 N.am    1  UNL1       -0.3253
     26 O         138.7167  145.0799  164.8347 O.2     1  UNL1       -0.2703
     27 H         137.6572  144.1348  161.6513 H       1  UNL1        0.1453
     28 H         137.1314  145.4612  162.5851 H       1  UNL1        0.1453
     29 C         137.7446  138.3908  166.9421 C.3     1  UNL1        0.0671
     30 C         138.4966  137.8925  165.7436 C.3     1  UNL1        0.1093
@<TRIPOS>UNITY_ATOM_ATTR
1 1
charge 1
@<TRIPOS>BOND
     1    29    30    1
     2    30     1    1
     3     1     2    1
     4     1     3    1
     5     3     4    1
     6     4     5    1
     7     5     6   ar
     8     6     7   ar
     9     7     8   ar
    10     8    11    1
    11    11    12   am
    12    12    13    2
    13    12    14   am
    14    14    17    1
    15    17    18   ar
    16    18    19   ar
    17    19    20   ar
    18    20    21    1
    19    20    22   ar
    20    22    23   ar
    21     8     9   ar
    22     9    24    1
    23    24    25   am
    24    24    26    2
    25     6    10    1
    26    10     1    1
    27     9     5   ar
    28    23    17   ar
    29    11    15    1
    30    14    16    1
    31    25    27    1
    32    25    28    1
@<TRIPOS>MOLECULE
*****
 30 32 0 0 0
SMALL
GASTEIGER

@<TRIPOS>ATOM
      1 N         141.0095  140.6864  166.0815 N.4     1  UNL1        0.3055
      2 C         142.2447  140.0206  166.6115 C.3     1  UNL1        0.1708
      3 C         139.5608  141.0308  165.9013 C.3     1  UNL1        0.1139
      4 C         139.1559  142.0695  164.8977 C.3     1  UNL1        0.0879
      5 C         140.1998  142.7638  164.0743 C.ar    1  UNL1       -0.0026
      6 C         141.6485  142.4195  164.2544 C.ar    1  UNL1        0.0598
      7 S         142.4472  143.2647  163.3069 S.2     1  UNL1       -0.0709
      8 C         141.4920  144.1314  162.5411 C.ar    1  UNL1        0.0858
      9 C         140.1030  143.8219  163.0154 C.ar    1  UNL1        0.0694
     10 C         142.0534  141.3808  165.2580 C.3     1  UNL1        0.1425
     11 N         141.8610  145.1320  161.4862 N.am    1  UNL1       -0.2629
     12 C         141.4813  144.8882  160.0557 C.2     1  UNL1        0.3085
     13 O         140.7328  143.6438  159.6801 O.2     1  UNL1       -0.2521
     14 N         141.8502  145.8888  159.0009 N.am    1  UNL1       -0.2680
     15 H         142.3522  145.9488  161.7328 H       1  UNL1        0.1569
     16 H         142.3415  146.7055  159.2474 H       1  UNL1        0.1564
     17 C         141.4706  145.6449  157.5703 C.ar    1  UNL1        0.0516
     18 C         140.2204  146.2568  157.0114 C.ar    1  UNL1        0.0156
     19 C         139.8407  146.0130  155.5809 C.ar    1  UNL1        0.0127
     20 C         140.7114  145.1573  154.7093 C.ar    1  UNL1        0.0578
     21 CL        140.3317  144.9134  153.2787 Cl      1  UNL1       -0.0822
     22 C         141.9616  144.5454  155.2682 C.ar    1  UNL1        0.0127
     23 C         142.3412  144.7892  156.6987 C.ar    1  UNL1        0.0156
     24 C         138.8392  144.4585  162.5182 C.2     1  UNL1        0.2442
     25 N         137.5711  143.6597  162.4559 N.am    1  UNL1       -0.3253
     26 O         138.8433  145.8940  162.0831 O.2     1  UNL1       -0.2703
     27 H         137.5683  142.7175  162.7414 H       1  UNL1        0.1453
     28 H         136.7416  144.0776  162.1295 H       1  UNL1        0.1453
     29 C         139.6345  140.3198  168.2552 C.3     1  UNL1        0.0671
     30 C         140.3946  139.7608  167.0890 C.3     1  UNL1        0.1093
@<TRIPOS>UNITY_ATOM_ATTR
1 1
charge 1
@<TRIPOS>BOND
     1    29    30    1
     2    30     1    1
     3     1     2    1
     4     1     3    1
     5     3     4    1
     6     4     5    1
     7     5     6   ar
     8     6     7   ar
     9     7     8   ar
    10     8    11    1
    11    11    12   am
    12    12    13    2
    13    12    14   am
    14    14    17    1
    15    17    18   ar
    16    18    19   ar
    17    19    20   ar
    18    20    21    1
    19    20    22   ar
    20    22    23   ar
    21     8     9   ar
    22     9    24    1
    23    24    25   am
    24    24    26    2
    25     6    10    1
    26    10     1    1
    27     9     5   ar
    28    23    17   ar
    29    11    15    1
    30    14    16    1
    31    25    27    1
    32    25    28    1
@<TRIPOS>MOLECULE
*****
 30 32 0 0 0
SMALL
GASTEIGER

@<TRIPOS>ATOM
      1 N         142.8315  138.9766  158.1680 N.4     1  UNL1        0.3055
      2 C         142.0407  137.8241  157.6235 C.3     1  UNL1        0.1708
      3 C         143.6203  140.2518  158.2062 C.3     1  UNL1        0.1139
      4 C         144.1403  140.7732  159.5131 C.3     1  UNL1        0.0879
      5 C         143.8715  140.0194  160.7817 C.ar    1  UNL1       -0.0026
      6 C         143.0827  138.7441  160.7434 C.ar    1  UNL1        0.0598
      7 S         142.9768  138.2223  162.1458 S.2     1  UNL1       -0.0709
      8 C         143.7002  139.1751  163.0507 C.ar    1  UNL1        0.0858
      9 C         144.2531  140.2858  162.2076 C.ar    1  UNL1        0.0694
     10 C         142.5627  138.2227  159.4366 C.3     1  UNL1        0.1425
     11 N         143.8452  139.0409  164.5377 N.am    1  UNL1       -0.2629
     12 C         142.9821  139.8587  165.4522 C.2     1  UNL1        0.3085
     13 O         141.9741  140.8107  164.8798 O.2     1  UNL1       -0.2521
     14 N         143.1271  139.7246  166.9391 N.am    1  UNL1       -0.2680
     15 H         144.5068  138.4161  164.9134 H       1  UNL1        0.1569
     16 H         143.7887  139.0998  167.3148 H       1  UNL1        0.1564
     17 C         142.2641  140.5424  167.8537 C.ar    1  UNL1        0.0516
     18 C         140.8962  140.0547  168.2290 C.ar    1  UNL1        0.0156
     19 C         140.0331  140.8725  169.1435 C.ar    1  UNL1        0.0127
     20 C         140.5380  142.1780  169.6828 C.ar    1  UNL1        0.0578
     21 CL        139.6750  142.9958  170.5973 Cl      1  UNL1       -0.0822
     22 C         141.9059  142.6656  169.3074 C.ar    1  UNL1        0.0127
     23 C         142.7690  141.8478  168.3929 C.ar    1  UNL1        0.0156
     24 C         145.0481  141.4571  162.7034 C.2     1  UNL1        0.2442
     25 N         144.9784  142.7703  161.9817 N.am    1  UNL1       -0.3253
     26 O         145.9127  141.3155  163.9209 O.2     1  UNL1       -0.2703
     27 H         144.4109  142.8633  161.1826 H       1  UNL1        0.1453
     28 H         145.5002  143.5391  162.3071 H       1  UNL1        0.1453
     29 C         144.1201  139.5727  155.9922 C.3     1  UNL1        0.0671
     30 C         142.8257  139.3302  156.7103 C.3     1  UNL1        0.1093
@<TRIPOS>UNITY_ATOM_ATTR
1 1
charge 1
@<TRIPOS>BOND
     1    29    30    1
     2    30     1    1
     3     1     2    1
     4     1     3    1
     5     3     4    1
     6     4     5    1
     7     5     6   ar
     8     6     7   ar
     9     7     8   ar
    10     8    11    1
    11    11    12   am
    12    12    13    2
    13    12    14   am
    14    14    17    1
    15    17    18   ar
    16    18    19   ar
    17    19    20   ar
    18    20    21    1
    19    20    22   ar
    20    22    23   ar
    21     8     9   ar
    22     9    24    1
    23    24    25   am
    24    24    26    2
    25     6    10    1
    26    10     1    1
    27     9     5   ar
    28    23    17   ar
    29    11    15    1
    30    14    16    1
    31    25    27    1
    32    25    28    1
@<TRIPOS>MOLECULE
*****
 30 32 0 0 0
SMALL
GASTEIGER

@<TRIPOS>ATOM
      1 N         140.8552  144.8079  157.9727 N.4     1  UNL1        0.3055
      2 C         141.8323  145.8635  157.5472 C.3     1  UNL1        0.1708
      3 C         139.8721  143.6786  157.8827 C.3     1  UNL1        0.1139
      4 C         139.2459  143.1281  159.1296 C.3     1  UNL1        0.0879
      5 C         139.6027  143.7069  160.4666 C.ar    1  UNL1       -0.0026
      6 C         140.5859  144.8362  160.5566 C.ar    1  UNL1        0.0598
      7 S         140.7418  145.2007  162.0033 S.2     1  UNL1       -0.0709
      8 C         139.8551  144.2967  162.8073 C.ar    1  UNL1        0.0858
      9 C         139.1511  143.3735  161.8575 C.ar    1  UNL1        0.0694
     10 C         141.2121  145.3867  159.3097 C.3     1  UNL1        0.1425
     11 N         139.6996  144.3130  164.2992 N.am    1  UNL1       -0.2629
     12 C         140.3046  143.2192  165.1283 C.2     1  UNL1        0.3085
     13 O         141.0653  142.1091  164.4656 O.2     1  UNL1       -0.2521
     14 N         140.1492  143.2355  166.6201 N.am    1  UNL1       -0.2680
     15 H         139.2004  145.0416  164.7341 H       1  UNL1        0.1569
     16 H         139.6500  143.9641  167.0551 H       1  UNL1        0.1564
     17 C         140.7542  142.1417  167.4492 C.ar    1  UNL1        0.0516
     18 C         142.1586  142.2762  167.9586 C.ar    1  UNL1        0.0156
     19 C         142.7637  141.1824  168.7878 C.ar    1  UNL1        0.0127
     20 C         141.9644  139.9541  169.1075 C.ar    1  UNL1        0.0578
     21 CL        142.5695  138.8603  169.9366 Cl      1  UNL1       -0.0822
     22 C         140.5600  139.8196  168.5981 C.ar    1  UNL1        0.0127
     23 C         139.9549  140.9134  167.7690 C.ar    1  UNL1        0.0156
     24 C         138.1680  142.3045  162.2328 C.2     1  UNL1        0.2442
     25 N         138.1134  141.0270  161.4487 N.am    1  UNL1       -0.3253
     26 O         137.2395  142.5130  163.3922 O.2     1  UNL1       -0.2703
     27 H         138.7229  140.8901  160.6877 H       1  UNL1        0.1453
     28 H         137.4682  140.3254  161.6950 H       1  UNL1        0.1453
     29 C         140.1223  145.5699  155.5995 C.3     1  UNL1        0.0671
     30 C         140.8376  144.5957  156.4879 C.3     1  UNL1        0.1093
@<TRIPOS>UNITY_ATOM_ATTR
1 1
charge 1
@<TRIPOS>BOND
     1    29    30    1
     2    30     1    1
     3     1     2    1
     4     1     3    1
     5     3     4    1
     6     4     5    1
     7     5     6   ar
     8     6     7   ar
     9     7     8   ar
    10     8    11    1
    11    11    12   am
    12    12    13    2
    13    12    14   am
    14    14    17    1
    15    17    18   ar
    16    18    19   ar
    17    19    20   ar
    18    20    21    1
    19    20    22   ar
    20    22    23   ar
    21     8     9   ar
    22     9    24    1
    23    24    25   am
    24    24    26    2
    25     6    10    1
    26    10     1    1
    27     9     5   ar
    28    23    17   ar
    29    11    15    1
    30    14    16    1
    31    25    27    1
    32    25    28    1
@<TRIPOS>MOLECULE
*****
 30 32 0 0 0
SMALL
GASTEIGER

@<TRIPOS>ATOM
      1 N         140.6785  141.3844  168.6272 N.4     1  UNL1        0.3055
      2 C         141.4483  142.2899  169.5423 C.3     1  UNL1        0.1708
      3 C         139.9886  140.1558  168.1127 C.3     1  UNL1        0.1139
      4 C         139.3358  140.1721  166.7623 C.3     1  UNL1        0.0879
      5 C         139.3729  141.4170  165.9264 C.ar    1  UNL1       -0.0026
      6 C         140.0627  142.6456  166.4408 C.ar    1  UNL1        0.0598
      7 S         139.9378  143.7178  165.3993 S.2     1  UNL1       -0.0709
      8 C         139.1708  143.1519  164.2411 C.ar    1  UNL1        0.0858
      9 C         138.8216  141.7299  164.5669 C.ar    1  UNL1        0.0694
     10 C         140.7155  142.6293  167.7912 C.3     1  UNL1        0.1425
     11 N         138.8152  143.8801  162.9788 N.am    1  UNL1       -0.2629
     12 C         139.6712  143.7246  161.7568 C.2     1  UNL1        0.3085
     13 O         140.8827  142.8410  161.7973 O.2     1  UNL1       -0.2521
     14 N         139.3157  144.4527  160.4945 N.am    1  UNL1       -0.2680
     15 H         138.0201  144.4600  162.9523 H       1  UNL1        0.1569
     16 H         138.5206  145.0326  160.4680 H       1  UNL1        0.1564
     17 C         140.1717  144.2973  159.2726 C.ar    1  UNL1        0.0516
     18 C         141.3642  145.1853  159.0743 C.ar    1  UNL1        0.0156
     19 C         142.2202  145.0299  157.8524 C.ar    1  UNL1        0.0127
     20 C         141.8837  143.9864  156.8287 C.ar    1  UNL1        0.0578
     21 CL        142.7397  143.8310  155.6068 Cl      1  UNL1       -0.0822
     22 C         140.6913  143.0984  157.0270 C.ar    1  UNL1        0.0127
     23 C         139.8353  143.2538  158.2490 C.ar    1  UNL1        0.0156
     24 C         138.0557  140.7865  163.6876 C.2     1  UNL1        0.2442
     25 N         138.3316  139.3133  163.7484 N.am    1  UNL1       -0.3253
     26 O         137.0138  141.3161  162.7474 O.2     1  UNL1       -0.2703
     27 H         139.0154  138.9656  164.3655 H       1  UNL1        0.1453
     28 H         137.8289  138.6941  163.1713 H       1  UNL1        0.1453
     29 C         142.0219  139.4500  169.7242 C.3     1  UNL1        0.0671
     30 C         140.9088  140.4539  169.7810 C.3     1  UNL1        0.1093
@<TRIPOS>UNITY_ATOM_ATTR
1 1
charge 1
@<TRIPOS>BOND
     1    29    30    1
     2    30     1    1
     3     1     2    1
     4     1     3    1
     5     3     4    1
     6     4     5    1
     7     5     6   ar
     8     6     7   ar
     9     7     8   ar
    10     8    11    1
    11    11    12   am
    12    12    13    2
    13    12    14   am
    14    14    17    1
    15    17    18   ar
    16    18    19   ar
    17    19    20   ar
    18    20    21    1
    19    20    22   ar
    20    22    23   ar
    21     8     9   ar
    22     9    24    1
    23    24    25   am
    24    24    26    2
    25     6    10    1
    26    10     1    1
    27     9     5   ar
    28    23    17   ar
    29    11    15    1
    30    14    16    1
    31    25    27    1
    32    25    28    1
@<TRIPOS>MOLECULE
*****
 30 32 0 0 0
SMALL
GASTEIGER

@<TRIPOS>ATOM
      1 N         141.9776  140.9403  168.7148 N.4     1  UNL1        0.3055
      2 C         141.2867  139.8880  169.5306 C.3     1  UNL1        0.1708
      3 C         142.5254  142.2771  168.3113 C.3     1  UNL1        0.1139
      4 C         143.2449  142.4292  167.0040 C.3     1  UNL1        0.0879
      5 C         143.4166  141.2445  166.1001 C.ar    1  UNL1       -0.0026
      6 C         142.8687  139.9077  166.5036 C.ar    1  UNL1        0.0598
      7 S         143.1888  138.9275  165.4141 S.2     1  UNL1       -0.0709
      8 C         143.9344  139.6586  164.3373 C.ar    1  UNL1        0.0858
      9 C         144.0752  141.0905  164.7613 C.ar    1  UNL1        0.0694
     10 C         142.1492  139.7556  167.8110 C.3     1  UNL1        0.1425
     11 N         144.4489  139.0624  163.0606 N.am    1  UNL1       -0.2629
     12 C         143.7358  139.3279  161.7680 C.2     1  UNL1        0.3085
     13 O         142.5080  140.1897  161.7521 O.2     1  UNL1       -0.2521
     14 N         144.2502  138.7318  160.4913 N.am    1  UNL1       -0.2680
     15 H         145.2547  138.4968  163.0711 H       1  UNL1        0.1569
     16 H         145.0560  138.1662  160.5018 H       1  UNL1        0.1564
     17 C         143.5371  138.9973  159.1987 C.ar    1  UNL1        0.0516
     18 C         143.8225  140.2526  158.4288 C.ar    1  UNL1        0.0156
     19 C         143.1093  140.5181  157.1362 C.ar    1  UNL1        0.0127
     20 C         142.1107  139.5284  156.6135 C.ar    1  UNL1        0.0578
     21 CL        141.3975  139.7940  155.3209 Cl      1  UNL1       -0.0822
     22 C         141.8253  138.2732  157.3834 C.ar    1  UNL1        0.0127
     23 C         142.5384  138.0077  158.6761 C.ar    1  UNL1        0.0156
     24 C         144.7552  142.1777  163.9830 C.2     1  UNL1        0.2442
     25 N         146.1242  141.9490  163.4142 N.am    1  UNL1       -0.3253
     26 O         144.0663  143.4935  163.7736 O.2     1  UNL1       -0.2703
     27 H         146.5764  141.0853  163.5516 H       1  UNL1        0.1453
     28 H         146.5705  142.6625  162.9034 H       1  UNL1        0.1453
     29 C         142.4807  142.8235  170.4325 C.3     1  UNL1        0.0671
     30 C         141.5660  141.7596  169.9020 C.3     1  UNL1        0.1093
@<TRIPOS>UNITY_ATOM_ATTR
1 1
charge 1
@<TRIPOS>BOND
     1    29    30    1
     2    30     1    1
     3     1     2    1
     4     1     3    1
     5     3     4    1
     6     4     5    1
     7     5     6   ar
     8     6     7   ar
     9     7     8   ar
    10     8    11    1
    11    11    12   am
    12    12    13    2
    13    12    14   am
    14    14    17    1
    15    17    18   ar
    16    18    19   ar
    17    19    20   ar
    18    20    21    1
    19    20    22   ar
    20    22    23   ar
    21     8     9   ar
    22     9    24    1
    23    24    25   am
    24    24    26    2
    25     6    10    1
    26    10     1    1
    27     9     5   ar
    28    23    17   ar
    29    11    15    1
    30    14    16    1
    31    25    27    1
    32    25    28    1
@<TRIPOS>MOLECULE
*****
 30 32 0 0 0
SMALL
GASTEIGER

@<TRIPOS>ATOM
      1 N         141.4818  141.2162  169.6434 N.4     1  UNL1        0.3055
      2 C         142.7629  141.5194  170.3624 C.3     1  UNL1        0.1708
      3 C         140.0149  141.1782  169.3324 C.3     1  UNL1        0.1139
      4 C         139.5280  140.4817  168.0963 C.3     1  UNL1        0.0879
      5 C         140.5081  139.8231  167.1712 C.ar    1  UNL1       -0.0026
      6 C         141.9749  139.8611  167.4823 C.ar    1  UNL1        0.0598
      7 S         142.6991  139.1287  166.3917 S.2     1  UNL1       -0.0709
      8 C         141.6798  138.6382  165.4067 C.ar    1  UNL1        0.0858
      9 C         140.3256  139.0673  165.8885 C.ar    1  UNL1        0.0694
     10 C         142.4618  140.5576  168.7183 C.3     1  UNL1        0.1425
     11 N         141.9645  137.8558  164.1589 N.am    1  UNL1       -0.2629
     12 C         141.9970  138.5498  162.8295 C.2     1  UNL1        0.3085
     13 O         141.7448  140.0263  162.7479 O.2     1  UNL1       -0.2521
     14 N         142.2817  137.7675  161.5818 N.am    1  UNL1       -0.2680
     15 H         142.1300  136.8868  164.2125 H       1  UNL1        0.1569
     16 H         142.4473  136.7985  161.6354 H       1  UNL1        0.1564
     17 C         142.3142  138.4615  160.2524 C.ar    1  UNL1        0.0516
     18 C         141.1163  138.4123  159.3511 C.ar    1  UNL1        0.0156
     19 C         141.1488  139.1063  158.0218 C.ar    1  UNL1        0.0127
     20 C         142.3793  139.8496  157.5937 C.ar    1  UNL1        0.0578
     21 CL        142.4118  140.5437  156.2643 Cl      1  UNL1       -0.0822
     22 C         143.5773  139.8989  158.4950 C.ar    1  UNL1        0.0127
     23 C         143.5447  139.2049  159.8244 C.ar    1  UNL1        0.0156
     24 C         139.0185  138.7895  165.2072 C.2     1  UNL1        0.2442
     25 N         137.9545  139.8460  165.1664 N.am    1  UNL1       -0.3253
     26 O         138.7753  137.4552  164.5666 O.2     1  UNL1       -0.2703
     27 H         138.1140  140.7218  165.5869 H       1  UNL1        0.1453
     28 H         137.0966  139.6637  164.7192 H       1  UNL1        0.1453
     29 C         139.9001  143.0350  170.6131 C.3     1  UNL1        0.0671
     30 C         140.9466  141.9801  170.8182 C.3     1  UNL1        0.1093
@<TRIPOS>UNITY_ATOM_ATTR
1 1
charge 1
@<TRIPOS>BOND
     1    29    30    1
     2    30     1    1
     3     1     2    1
     4     1     3    1
     5     3     4    1
     6     4     5    1
     7     5     6   ar
     8     6     7   ar
     9     7     8   ar
    10     8    11    1
    11    11    12   am
    12    12    13    2
    13    12    14   am
    14    14    17    1
    15    17    18   ar
    16    18    19   ar
    17    19    20   ar
    18    20    21    1
    19    20    22   ar
    20    22    23   ar
    21     8     9   ar
    22     9    24    1
    23    24    25   am
    24    24    26    2
    25     6    10    1
    26    10     1    1
    27     9     5   ar
    28    23    17   ar
    29    11    15    1
    30    14    16    1
    31    25    27    1
    32    25    28    1
@<TRIPOS>MOLECULE
*****
 30 32 0 0 0
SMALL
GASTEIGER

@<TRIPOS>ATOM
      1 N         141.0895  140.0692  167.5445 N.4     1  UNL1        0.3055
      2 C         142.4615  140.1188  168.1489 C.3     1  UNL1        0.1708
      3 C         139.5978  139.9499  167.4422 C.3     1  UNL1        0.1139
      4 C         138.9275  140.0485  166.1040 C.3     1  UNL1        0.0879
      5 C         139.7489  140.2666  164.8680 C.ar    1  UNL1       -0.0026
      6 C         141.2406  140.3859  164.9702 C.ar    1  UNL1        0.0598
      7 S         141.7846  140.5967  163.5883 S.2     1  UNL1       -0.0709
      8 C         140.6291  140.6076  162.6320 C.ar    1  UNL1        0.0858
      9 C         139.3709  140.4036  163.4229 C.ar    1  UNL1        0.0694
     10 C         141.9109  140.2872  166.3085 C.3     1  UNL1        0.1425
     11 N         140.7163  140.7905  161.1457 N.am    1  UNL1       -0.2629
     12 C         140.8802  139.5973  160.2516 C.2     1  UNL1        0.3085
     13 O         140.9568  138.2212  160.8438 O.2     1  UNL1       -0.2521
     14 N         140.9674  139.7801  158.7653 N.am    1  UNL1       -0.2680
     15 H         140.6660  141.6936  160.7570 H       1  UNL1        0.1569
     16 H         140.9171  140.6832  158.3767 H       1  UNL1        0.1564
     17 C         141.1313  138.5868  157.8713 C.ar    1  UNL1        0.0516
     18 C         139.9810  138.1146  157.0323 C.ar    1  UNL1        0.0156
     19 C         140.1449  136.9214  156.1382 C.ar    1  UNL1        0.0127
     20 C         141.4590  136.2004  156.0831 C.ar    1  UNL1        0.0578
     21 CL        141.6229  135.0072  155.1890 Cl      1  UNL1       -0.0822
     22 C         142.6093  136.6726  156.9220 C.ar    1  UNL1        0.0127
     23 C         142.4454  137.8658  157.8161 C.ar    1  UNL1        0.0156
     24 C         137.9792  140.3466  162.8664 C.2     1  UNL1        0.2442
     25 N         136.9123  141.2433  163.4211 N.am    1  UNL1       -0.3253
     26 O         137.6542  139.3929  161.7552 O.2     1  UNL1       -0.2703
     27 H         137.1256  141.8693  164.1504 H       1  UNL1        0.1453
     28 H         135.9988  141.2059  163.0558 H       1  UNL1        0.1453
     29 C         141.8078  139.4560  169.9648 C.3     1  UNL1        0.0671
     30 C         140.7446  139.8684  168.9904 C.3     1  UNL1        0.1093
@<TRIPOS>UNITY_ATOM_ATTR
1 1
charge 1
@<TRIPOS>BOND
     1    29    30    1
     2    30     1    1
     3     1     2    1
     4     1     3    1
     5     3     4    1
     6     4     5    1
     7     5     6   ar
     8     6     7   ar
     9     7     8   ar
    10     8    11    1
    11    11    12   am
    12    12    13    2
    13    12    14   am
    14    14    17    1
    15    17    18   ar
    16    18    19   ar
    17    19    20   ar
    18    20    21    1
    19    20    22   ar
    20    22    23   ar
    21     8     9   ar
    22     9    24    1
    23    24    25   am
    24    24    26    2
    25     6    10    1
    26    10     1    1
    27     9     5   ar
    28    23    17   ar
    29    11    15    1
    30    14    16    1
    31    25    27    1
    32    25    28    1
@<TRIPOS>MOLECULE
*****
 30 32 0 0 0
SMALL
GASTEIGER

@<TRIPOS>ATOM
      1 N         143.5275  141.2377  156.8416 N.4     1  UNL1        0.3055
      2 C         142.9097  140.3268  155.8224 C.3     1  UNL1        0.1708
      3 C         144.1793  142.4502  157.4374 C.3     1  UNL1        0.1139
      4 C         144.5185  142.4778  158.8982 C.3     1  UNL1        0.0879
      5 C         144.2060  141.2929  159.7633 C.ar    1  UNL1       -0.0026
      6 C         143.5542  140.0804  159.1675 C.ar    1  UNL1        0.0598
      7 S         143.3675  139.0702  160.2606 S.2     1  UNL1       -0.0709
      8 C         143.9038  139.6584  161.5319 C.ar    1  UNL1        0.0858
      9 C         144.4221  141.0321  161.2246 C.ar    1  UNL1        0.0694
     10 C         143.2150  140.0528  157.7066 C.3     1  UNL1        0.1425
     11 N         143.9193  138.9903  162.8748 N.am    1  UNL1       -0.2629
     12 C         142.9828  139.4506  163.9523 C.2     1  UNL1        0.3085
     13 O         142.0308  140.5791  163.6869 O.2     1  UNL1       -0.2521
     14 N         142.9982  138.7826  165.2952 N.am    1  UNL1       -0.2680
     15 H         144.5441  138.2497  163.0490 H       1  UNL1        0.1569
     16 H         143.6230  138.0419  165.4694 H       1  UNL1        0.1564
     17 C         142.0617  139.2429  166.3727 C.ar    1  UNL1        0.0516
     18 C         140.5883  139.3212  166.1028 C.ar    1  UNL1        0.0156
     19 C         139.6518  139.7816  167.1803 C.ar    1  UNL1        0.0127
     20 C         140.1887  140.1636  168.5278 C.ar    1  UNL1        0.0578
     21 CL        139.2522  140.6239  169.6053 Cl      1  UNL1       -0.0822
     22 C         141.6621  140.0852  168.7977 C.ar    1  UNL1        0.0127
     23 C         142.5986  139.6249  167.7202 C.ar    1  UNL1        0.0156
     24 C         145.0467  141.9788  162.2062 C.2     1  UNL1        0.2442
     25 N         144.7143  143.4406  162.1540 N.am    1  UNL1       -0.3253
     26 O         146.0038  141.4639  163.2400 O.2     1  UNL1       -0.2703
     27 H         144.0862  143.7787  161.4755 H       1  UNL1        0.1453
     28 H         145.1243  144.0620  162.7982 H       1  UNL1        0.1453
     29 C         144.4566  141.6671  154.4536 C.3     1  UNL1        0.0671
     30 C         143.6255  142.1063  155.6225 C.3     1  UNL1        0.1093
@<TRIPOS>UNITY_ATOM_ATTR
1 1
charge 1
@<TRIPOS>BOND
     1    29    30    1
     2    30     1    1
     3     1     2    1
     4     1     3    1
     5     3     4    1
     6     4     5    1
     7     5     6   ar
     8     6     7   ar
     9     7     8   ar
    10     8    11    1
    11    11    12   am
    12    12    13    2
    13    12    14   am
    14    14    17    1
    15    17    18   ar
    16    18    19   ar
    17    19    20   ar
    18    20    21    1
    19    20    22   ar
    20    22    23   ar
    21     8     9   ar
    22     9    24    1
    23    24    25   am
    24    24    26    2
    25     6    10    1
    26    10     1    1
    27     9     5   ar
    28    23    17   ar
    29    11    15    1
    30    14    16    1
    31    25    27    1
    32    25    28    1
