@<TRIPOS>MOLECULE
*****
 26 30 0 0 0
SMALL
GASTEIGER

@<TRIPOS>ATOM
      1 C         143.2941  139.1224  165.6927 C.ar    1  UNL1        0.1741
      2 C         142.3201  140.1089  166.2655 C.ar    1  UNL1        0.1326
      3 N         142.2326  139.8690  167.7436 N.ar    1  UNL1       -0.2326
      4 N         143.1525  138.7342  168.0843 N.ar    1  UNL1       -0.0627
      5 N         143.8086  138.2728  166.8168 N.ar    1  UNL1       -0.1136
      6 C         141.3756  140.6303  168.7112 C.3     1  UNL1        0.0882
      7 C         141.9195  141.8479  169.3977 C.3     1  UNL1        0.0225
      8 C         141.0625  142.6091  170.3652 C.3     1  UNL1        0.0019
      9 C         139.6616  142.1526  170.6462 C.3     1  UNL1        0.0001
     10 C         139.1176  140.9350  169.9596 C.3     1  UNL1        0.0019
     11 C         142.1976  141.3378  168.8826 C.3     1  UNL1        0.0001
     12 C         143.3205  142.3044  169.1167 C.3     1  UNL1        0.0019
     13 C         142.4635  143.0655  170.0843 C.3     1  UNL1        0.0001
     14 C         142.7765  141.0867  168.4302 C.3     1  UNL1        0.0225
     15 C         139.9746  140.1738  168.9921 C.3     1  UNL1        0.0225
     16 N         143.6851  139.0059  164.2492 N.pl3   1  UNL1       -0.2892
     17 C         141.6214  137.5150  163.7312 C.3     1  UNL1        0.0232
     18 C         142.7292  138.4093  163.2591 C.3     1  UNL1        0.0924
     19 C         145.0319  139.4861  163.7958 C.3     1  UNL1        0.1095
     20 C         145.4282  140.9172  164.0071 C.3     1  UNL1        0.0939
     21 N         144.7816  142.0018  163.1974 N.3     1  UNL1       -0.2670
     22 C         144.2968  143.2520  163.8698 C.3     1  UNL1        0.1047
     23 C         143.6503  144.3367  163.0602 C.3     1  UNL1        0.1595
     24 O         143.4886  144.1712  161.5781 O.3     1  UNL1       -0.3508
     25 C         143.9734  142.9210  160.9058 C.3     1  UNL1        0.1595
     26 C         144.6199  141.8363  161.7154 C.3     1  UNL1        0.1047
@<TRIPOS>BOND
     1    17    18    1
     2    18    16    1
     3    16    19    1
     4    19    20    1
     5    20    21    1
     6    21    22    1
     7    22    23    1
     8    23    24    1
     9    24    25    1
    10    25    26    1
    11    16     1    1
    12     1     2   ar
    13     2     3   ar
    14     3     6    1
    15     6     7    1
    16     7     8    1
    17     8     9    1
    18     9    10    1
    19    10    11    1
    20    11    12    1
    21    12    13    1
    22    12    14    1
    23    10    15    1
    24     3     4   ar
    25     4     5   ar
    26    26    21    1
    27     5     1   ar
    28    14     6    1
    29    15     6    1
    30    13     8    1
@<TRIPOS>MOLECULE
*****
 26 30 0 0 0
SMALL
GASTEIGER

@<TRIPOS>ATOM
      1 C         142.9679  139.1303  165.5850 C.ar    1  UNL1        0.1741
      2 C         142.1877  140.2822  166.1457 C.ar    1  UNL1        0.1326
      3 N         142.2784  140.2192  167.6416 N.ar    1  UNL1       -0.2326
      4 N         143.1148  139.0283  168.0055 N.ar    1  UNL1       -0.0627
      5 N         143.5409  138.3553  166.7345 N.ar    1  UNL1       -0.1136
      6 C         141.6442  141.1786  168.6046 C.3     1  UNL1        0.0882
      7 C         140.2566  140.9230  169.1137 C.3     1  UNL1        0.0225
      8 C         139.6225  141.8824  170.0766 C.3     1  UNL1        0.0019
      9 C         140.3759  143.0974  170.5306 C.3     1  UNL1        0.0001
     10 C         141.7635  143.3530  170.0215 C.3     1  UNL1        0.0019
     11 C         140.7393  140.5570  168.6279 C.3     1  UNL1        0.0001
     12 C         139.5032  139.7080  168.6597 C.3     1  UNL1        0.0019
     13 C         138.8690  140.6673  169.6227 C.3     1  UNL1        0.0001
     14 C         140.8908  139.9636  168.1507 C.3     1  UNL1        0.0225
     15 C         142.3977  142.3936  169.0585 C.3     1  UNL1        0.0225
     16 N         143.1442  138.8096  164.1303 N.pl3   1  UNL1       -0.2892
     17 C         141.1131  137.1904  164.1825 C.3     1  UNL1        0.0232
     18 C         142.1018  138.0096  163.4070 C.3     1  UNL1        0.0924
     19 C         144.3630  139.2890  163.3990 C.3     1  UNL1        0.1095
     20 C         145.1960  140.3958  163.9742 C.3     1  UNL1        0.0939
     21 N         144.8165  141.8259  163.7280 N.3     1  UNL1       -0.2670
     22 C         144.7059  142.3414  162.3237 C.3     1  UNL1        0.1047
     23 C         144.3265  143.7716  162.0774 C.3     1  UNL1        0.1595
     24 O         144.0576  144.6862  163.2355 O.3     1  UNL1       -0.3508
     25 C         144.1682  144.1707  164.6398 C.3     1  UNL1        0.1595
     26 C         144.5476  142.7405  164.8860 C.3     1  UNL1        0.1047
@<TRIPOS>BOND
     1    17    18    1
     2    18    16    1
     3    16    19    1
     4    19    20    1
     5    20    21    1
     6    21    22    1
     7    22    23    1
     8    23    24    1
     9    24    25    1
    10    25    26    1
    11    16     1    1
    12     1     2   ar
    13     2     3   ar
    14     3     6    1
    15     6     7    1
    16     7     8    1
    17     8     9    1
    18     9    10    1
    19    10    11    1
    20    11    12    1
    21    12    13    1
    22    12    14    1
    23    10    15    1
    24     3     4   ar
    25     4     5   ar
    26    26    21    1
    27     5     1   ar
    28    14     6    1
    29    15     6    1
    30    13     8    1
@<TRIPOS>MOLECULE
*****
 26 30 0 0 0
SMALL
GASTEIGER

@<TRIPOS>ATOM
      1 C         143.4238  139.2599  165.6771 C.ar    1  UNL1        0.1741
      2 C         142.4758  140.2599  166.2697 C.ar    1  UNL1        0.1326
      3 N         142.2920  139.9217  167.7195 N.ar    1  UNL1       -0.2326
      4 N         143.1265  138.7127  168.0229 N.ar    1  UNL1       -0.0627
      5 N         143.8260  138.3036  166.7606 N.ar    1  UNL1       -0.1136
      6 C         141.4259  140.6625  168.6948 C.3     1  UNL1        0.0882
      7 C         141.9564  141.8771  169.3970 C.3     1  UNL1        0.0225
      8 C         141.0903  142.6178  170.3722 C.3     1  UNL1        0.0019
      9 C         139.6935  142.1439  170.6452 C.3     1  UNL1        0.0001
     10 C         139.1630  140.9293  169.9430 C.3     1  UNL1        0.0019
     11 C         142.2405  141.3761  168.8761 C.3     1  UNL1        0.0001
     12 C         143.3532  142.3510  169.1240 C.3     1  UNL1        0.0019
     13 C         142.4870  143.0917  170.0992 C.3     1  UNL1        0.0001
     14 C         142.8226  141.1364  168.4218 C.3     1  UNL1        0.0225
     15 C         140.0291  140.1886  168.9678 C.3     1  UNL1        0.0225
     16 N         143.8881  139.2226  164.2512 N.pl3   1  UNL1       -0.2892
     17 C         145.3986  141.3008  163.8645 C.3     1  UNL1        0.0232
     18 C         145.2164  139.8120  163.8794 C.3     1  UNL1        0.0924
     19 C         143.0242  138.5959  163.1972 C.3     1  UNL1        0.1095
     20 C         141.7920  137.8368  163.5911 C.3     1  UNL1        0.0939
     21 N         140.5260  138.5752  163.9103 N.3     1  UNL1       -0.2670
     22 C         139.6755  138.1407  165.0669 C.3     1  UNL1        0.1047
     23 C         138.4095  138.8791  165.3861 C.3     1  UNL1        0.1595
     24 O         137.9940  140.0521  164.5486 O.3     1  UNL1       -0.3508
     25 C         138.8445  140.4866  163.3919 C.3     1  UNL1        0.1595
     26 C         140.1105  139.7482  163.0727 C.3     1  UNL1        0.1047
@<TRIPOS>BOND
     1    17    18    1
     2    18    16    1
     3    16    19    1
     4    19    20    1
     5    20    21    1
     6    21    22    1
     7    22    23    1
     8    23    24    1
     9    24    25    1
    10    25    26    1
    11    16     1    1
    12     1     2   ar
    13     2     3   ar
    14     3     6    1
    15     6     7    1
    16     7     8    1
    17     8     9    1
    18     9    10    1
    19    10    11    1
    20    11    12    1
    21    12    13    1
    22    12    14    1
    23    10    15    1
    24     3     4   ar
    25     4     5   ar
    26    26    21    1
    27     5     1   ar
    28    14     6    1
    29    15     6    1
    30    13     8    1
@<TRIPOS>MOLECULE
*****
 26 30 0 0 0
SMALL
GASTEIGER

@<TRIPOS>ATOM
      1 C         139.6601  140.6518  168.6636 C.ar    1  UNL1        0.1741
      2 C         139.6702  140.9685  167.1974 C.ar    1  UNL1        0.1326
      3 N         138.7366  140.0160  166.5110 N.ar    1  UNL1       -0.2326
      4 N         138.1496  139.1106  167.5530 N.ar    1  UNL1       -0.0627
      5 N         138.7203  139.5035  168.8833 N.ar    1  UNL1       -0.1136
      6 C         138.4418  139.9759  165.0408 C.3     1  UNL1        0.0882
      7 C         138.7547  138.7426  164.2465 C.3     1  UNL1        0.0225
      8 C         138.4599  138.7025  162.7763 C.3     1  UNL1        0.0019
      9 C         137.8522  139.8958  162.1005 C.3     1  UNL1        0.0001
     10 C         137.5393  141.1291  162.8948 C.3     1  UNL1        0.0019
     11 C         138.8309  138.9503  164.9908 C.3     1  UNL1        0.0001
     12 C         139.3625  137.5493  164.9224 C.3     1  UNL1        0.0019
     13 C         139.0676  137.5093  163.4522 C.3     1  UNL1        0.0001
     14 C         139.0495  138.7826  165.7167 C.3     1  UNL1        0.0225
     15 C         137.8341  141.1692  164.3649 C.3     1  UNL1        0.0225
     16 N         140.4510  141.3592  169.7238 N.pl3   1  UNL1       -0.2892
     17 C         140.4485  143.9540  169.8537 C.3     1  UNL1        0.0232
     18 C         139.9286  142.6291  170.3274 C.3     1  UNL1        0.0924
     19 C         141.7643  140.7966  170.1806 C.3     1  UNL1        0.1095
     20 C         142.5968  139.9765  169.2402 C.3     1  UNL1        0.0939
     21 N         142.8929  140.4866  167.8611 N.3     1  UNL1       -0.2670
     22 C         142.9284  139.5360  166.7013 C.3     1  UNL1        0.1047
     23 C         143.2245  140.0461  165.3222 C.3     1  UNL1        0.1595
     24 O         143.4852  141.5069  165.1028 O.3     1  UNL1       -0.3508
     25 C         143.4497  142.4575  166.2626 C.3     1  UNL1        0.1595
     26 C         143.1536  141.9474  167.6417 C.3     1  UNL1        0.1047
@<TRIPOS>BOND
     1    17    18    1
     2    18    16    1
     3    16    19    1
     4    19    20    1
     5    20    21    1
     6    21    22    1
     7    22    23    1
     8    23    24    1
     9    24    25    1
    10    25    26    1
    11    16     1    1
    12     1     2   ar
    13     2     3   ar
    14     3     6    1
    15     6     7    1
    16     7     8    1
    17     8     9    1
    18     9    10    1
    19    10    11    1
    20    11    12    1
    21    12    13    1
    22    12    14    1
    23    10    15    1
    24     3     4   ar
    25     4     5   ar
    26    26    21    1
    27     5     1   ar
    28    14     6    1
    29    15     6    1
    30    13     8    1
@<TRIPOS>MOLECULE
*****
 26 30 0 0 0
SMALL
GASTEIGER

@<TRIPOS>ATOM
      1 C         139.0764  139.3839  165.6417 C.ar    1  UNL1        0.1741
      2 C         140.0397  140.4038  166.1725 C.ar    1  UNL1        0.1326
      3 N         139.8541  140.4874  167.6586 N.ar    1  UNL1       -0.2326
      4 N         138.7761  139.5191  168.0463 N.ar    1  UNL1       -0.0627
      5 N         138.2954  138.8371  166.7998 N.ar    1  UNL1       -0.1136
      6 C         140.6133  141.3822  168.5930 C.3     1  UNL1        0.0882
      7 C         141.8337  140.8683  169.2976 C.3     1  UNL1        0.0225
      8 C         142.5928  141.7630  170.2320 C.3     1  UNL1        0.0019
      9 C         142.1315  143.1717  170.4618 C.3     1  UNL1        0.0001
     10 C         140.9111  143.6856  169.7572 C.3     1  UNL1        0.0019
     11 C         141.3240  140.5695  168.7937 C.3     1  UNL1        0.0001
     12 C         142.2950  139.4596  169.0679 C.3     1  UNL1        0.0019
     13 C         143.0541  140.3543  170.0022 C.3     1  UNL1        0.0001
     14 C         141.0746  139.9735  168.3633 C.3     1  UNL1        0.0225
     15 C         140.1520  142.7909  168.8228 C.3     1  UNL1        0.0225
     16 N         138.9212  138.9814  164.2051 N.pl3   1  UNL1       -0.2892
     17 C         137.8127  139.3694  161.8876 C.3     1  UNL1        0.0232
     18 C         138.1791  139.8715  163.2527 C.3     1  UNL1        0.0924
     19 C         139.5082  137.6888  163.7207 C.3     1  UNL1        0.1095
     20 C         140.7783  137.1685  164.3256 C.3     1  UNL1        0.0939
     21 N         142.0713  137.8924  164.0933 N.3     1  UNL1       -0.2670
     22 C         142.5693  138.1083  162.6949 C.3     1  UNL1        0.1047
     23 C         143.8623  138.8322  162.4626 C.3     1  UNL1        0.1595
     24 O         144.6574  139.3402  163.6287 O.3     1  UNL1       -0.3508
     25 C         144.1594  139.1243  165.0270 C.3     1  UNL1        0.1595
     26 C         142.8664  138.4004  165.2594 C.3     1  UNL1        0.1047
@<TRIPOS>BOND
     1    17    18    1
     2    18    16    1
     3    16    19    1
     4    19    20    1
     5    20    21    1
     6    21    22    1
     7    22    23    1
     8    23    24    1
     9    24    25    1
    10    25    26    1
    11    16     1    1
    12     1     2   ar
    13     2     3   ar
    14     3     6    1
    15     6     7    1
    16     7     8    1
    17     8     9    1
    18     9    10    1
    19    10    11    1
    20    11    12    1
    21    12    13    1
    22    12    14    1
    23    10    15    1
    24     3     4   ar
    25     4     5   ar
    26    26    21    1
    27     5     1   ar
    28    14     6    1
    29    15     6    1
    30    13     8    1
@<TRIPOS>MOLECULE
*****
 26 30 0 0 0
SMALL
GASTEIGER

@<TRIPOS>ATOM
      1 C         143.0301  142.5297  164.6221 C.ar    1  UNL1        0.1741
      2 C         141.9840  141.5213  164.2495 C.ar    1  UNL1        0.1326
      3 N         141.4952  140.8729  165.5107 N.ar    1  UNL1       -0.2326
      4 N         142.2392  141.4805  166.6628 N.ar    1  UNL1       -0.0627
      5 N         143.1878  142.5045  166.1137 N.ar    1  UNL1       -0.1136
      6 C         140.4464  139.8044  165.6036 C.3     1  UNL1        0.0882
      7 C         140.7007  138.4504  165.0104 C.3     1  UNL1        0.0225
      8 C         139.6520  137.3820  165.1033 C.3     1  UNL1        0.0019
      9 C         138.3490  137.6676  165.7893 C.3     1  UNL1        0.0001
     10 C         138.0947  139.0217  166.3825 C.3     1  UNL1        0.0019
     11 C         141.1046  139.1114  165.0629 C.3     1  UNL1        0.0001
     12 C         142.0037  138.1647  164.3244 C.3     1  UNL1        0.0019
     13 C         140.9550  137.0963  164.4173 C.3     1  UNL1        0.0001
     14 C         141.7494  139.5188  164.9176 C.3     1  UNL1        0.0225
     15 C         139.1434  140.0901  166.2896 C.3     1  UNL1        0.0225
     16 N         143.7859  143.4089  163.6704 N.pl3   1  UNL1       -0.2892
     17 C         145.7445  141.7382  163.3200 C.3     1  UNL1        0.0232
     18 C         144.8518  142.8224  162.7930 C.3     1  UNL1        0.0924
     19 C         143.4757  144.8745  163.5959 C.3     1  UNL1        0.1095
     20 C         142.0798  145.3598  163.8523 C.3     1  UNL1        0.0939
     21 N         140.9497  144.8838  162.9884 N.3     1  UNL1       -0.2670
     22 C         139.6021  144.6221  163.5931 C.3     1  UNL1        0.1047
     23 C         138.4720  144.1462  162.7292 C.3     1  UNL1        0.1595
     24 O         138.6895  143.9319  161.2606 O.3     1  UNL1       -0.3508
     25 C         140.0370  144.1936  160.6559 C.3     1  UNL1        0.1595
     26 C         141.1671  144.6696  161.5198 C.3     1  UNL1        0.1047
@<TRIPOS>BOND
     1    17    18    1
     2    18    16    1
     3    16    19    1
     4    19    20    1
     5    20    21    1
     6    21    22    1
     7    22    23    1
     8    23    24    1
     9    24    25    1
    10    25    26    1
    11    16     1    1
    12     1     2   ar
    13     2     3   ar
    14     3     6    1
    15     6     7    1
    16     7     8    1
    17     8     9    1
    18     9    10    1
    19    10    11    1
    20    11    12    1
    21    12    13    1
    22    12    14    1
    23    10    15    1
    24     3     4   ar
    25     4     5   ar
    26    26    21    1
    27     5     1   ar
    28    14     6    1
    29    15     6    1
    30    13     8    1
@<TRIPOS>MOLECULE
*****
 26 30 0 0 0
SMALL
GASTEIGER

@<TRIPOS>ATOM
      1 C         140.5623  143.1614  164.5823 C.ar    1  UNL1        0.1741
      2 C         140.5376  143.1930  166.0818 C.ar    1  UNL1        0.1326
      3 N         140.8019  141.8027  166.5791 N.ar    1  UNL1       -0.2326
      4 N         140.9900  140.9119  165.3869 N.ar    1  UNL1       -0.0627
      5 N         140.8419  141.7516  164.1529 N.ar    1  UNL1       -0.1136
      6 C         140.8669  141.3778  168.0162 C.3     1  UNL1        0.0882
      7 C         142.1040  141.6435  168.8217 C.3     1  UNL1        0.0225
      8 C         142.1688  141.2186  170.2588 C.3     1  UNL1        0.0019
      9 C         140.9966  140.5280  170.8903 C.3     1  UNL1        0.0001
     10 C         139.7594  140.2623  170.0848 C.3     1  UNL1        0.0019
     11 C         141.8852  141.7820  168.0897 C.3     1  UNL1        0.0001
     12 C         143.2763  142.3340  168.1901 C.3     1  UNL1        0.0019
     13 C         143.3411  141.9091  169.6272 C.3     1  UNL1        0.0001
     14 C         142.0391  142.0684  167.3846 C.3     1  UNL1        0.0225
     15 C         139.6946  140.6872  168.6478 C.3     1  UNL1        0.0225
     16 N         140.3454  144.3338  163.6721 N.pl3   1  UNL1       -0.2892
     17 C         137.8205  143.7754  163.4211 C.3     1  UNL1        0.0232
     18 C         138.9519  144.7538  163.3091 C.3     1  UNL1        0.0924
     19 C         141.5220  145.0862  163.1248 C.3     1  UNL1        0.1095
     20 C         142.8683  144.9462  163.7710 C.3     1  UNL1        0.0939
     21 N         143.7872  143.8351  163.3571 N.3     1  UNL1       -0.2670
     22 C         144.5146  143.0364  164.3977 C.3     1  UNL1        0.1047
     23 C         145.4334  141.9254  163.9838 C.3     1  UNL1        0.1595
     24 O         145.6248  141.6131  162.5292 O.3     1  UNL1       -0.3508
     25 C         144.8974  142.4118  161.4886 C.3     1  UNL1        0.1595
     26 C         143.9786  143.5229  161.9025 C.3     1  UNL1        0.1047
@<TRIPOS>BOND
     1    17    18    1
     2    18    16    1
     3    16    19    1
     4    19    20    1
     5    20    21    1
     6    21    22    1
     7    22    23    1
     8    23    24    1
     9    24    25    1
    10    25    26    1
    11    16     1    1
    12     1     2   ar
    13     2     3   ar
    14     3     6    1
    15     6     7    1
    16     7     8    1
    17     8     9    1
    18     9    10    1
    19    10    11    1
    20    11    12    1
    21    12    13    1
    22    12    14    1
    23    10    15    1
    24     3     4   ar
    25     4     5   ar
    26    26    21    1
    27     5     1   ar
    28    14     6    1
    29    15     6    1
    30    13     8    1
@<TRIPOS>MOLECULE
*****
 26 30 0 0 0
SMALL
GASTEIGER

@<TRIPOS>ATOM
      1 C         139.4415  140.0072  167.7628 C.ar    1  UNL1        0.1741
      2 C         139.6170  140.2530  166.2936 C.ar    1  UNL1        0.1326
      3 N         138.5481  139.4933  165.5655 N.ar    1  UNL1       -0.2326
      4 N         137.7118  138.7780  166.5848 N.ar    1  UNL1       -0.0627
      5 N         138.2639  139.0955  167.9428 N.ar    1  UNL1       -0.1136
      6 C         138.3500  139.4555  164.0791 C.3     1  UNL1        0.0882
      7 C         137.9337  140.6963  163.3461 C.3     1  UNL1        0.0225
      8 C         137.7357  140.6585  161.8598 C.3     1  UNL1        0.0019
      9 C         137.9541  139.3799  161.1063 C.3     1  UNL1        0.0001
     10 C         138.3704  138.1392  161.8392 C.3     1  UNL1        0.0019
     11 C         138.0818  140.5203  164.0878 C.3     1  UNL1        0.0001
     12 C         137.7154  141.9748  164.0996 C.3     1  UNL1        0.0019
     13 C         137.5174  141.9370  162.6132 C.3     1  UNL1        0.0001
     14 C         138.1317  140.7341  164.8325 C.3     1  UNL1        0.0225
     15 C         138.5684  138.1770  163.3256 C.3     1  UNL1        0.0225
     16 N         140.2938  140.5735  168.8596 N.pl3   1  UNL1       -0.2892
     17 C         139.7542  142.5425  170.4664 C.3     1  UNL1        0.0232
     18 C         139.6556  141.0873  170.1160 C.3     1  UNL1        0.0924
     19 C         141.7843  140.6261  168.6999 C.3     1  UNL1        0.1095
     20 C         142.4939  139.5558  167.9248 C.3     1  UNL1        0.0939
     21 N         142.9909  139.8383  166.5381 N.3     1  UNL1       -0.2670
     22 C         143.1738  141.2552  166.0810 C.3     1  UNL1        0.1047
     23 C         143.6708  141.5377  164.6942 C.3     1  UNL1        0.1595
     24 O         143.9849  140.4033  163.7645 O.3     1  UNL1       -0.3508
     25 C         143.8020  138.9864  164.2216 C.3     1  UNL1        0.1595
     26 C         143.3050  138.7039  165.6083 C.3     1  UNL1        0.1047
@<TRIPOS>BOND
     1    17    18    1
     2    18    16    1
     3    16    19    1
     4    19    20    1
     5    20    21    1
     6    21    22    1
     7    22    23    1
     8    23    24    1
     9    24    25    1
    10    25    26    1
    11    16     1    1
    12     1     2   ar
    13     2     3   ar
    14     3     6    1
    15     6     7    1
    16     7     8    1
    17     8     9    1
    18     9    10    1
    19    10    11    1
    20    11    12    1
    21    12    13    1
    22    12    14    1
    23    10    15    1
    24     3     4   ar
    25     4     5   ar
    26    26    21    1
    27     5     1   ar
    28    14     6    1
    29    15     6    1
    30    13     8    1
@<TRIPOS>MOLECULE
*****
 26 30 0 0 0
SMALL
GASTEIGER

@<TRIPOS>ATOM
      1 C         143.1257  142.5938  164.8915 C.ar    1  UNL1        0.1741
      2 C         141.8637  141.7987  164.7328 C.ar    1  UNL1        0.1326
      3 N         141.4806  141.2632  166.0805 N.ar    1  UNL1       -0.2326
      4 N         142.5058  141.7274  167.0723 N.ar    1  UNL1       -0.0627
      5 N         143.5226  142.5497  166.3374 N.ar    1  UNL1       -0.1136
      6 C         140.2826  140.4129  166.3834 C.3     1  UNL1        0.0882
      7 C         139.7574  140.3293  167.7860 C.3     1  UNL1        0.0225
      8 C         138.5595  139.4790  168.0888 C.3     1  UNL1        0.0019
      9 C         137.8866  138.7122  166.9891 C.3     1  UNL1        0.0001
     10 C         138.4118  138.7957  165.5866 C.3     1  UNL1        0.0019
     11 C         140.3450  140.7017  167.4410 C.3     1  UNL1        0.0001
     12 C         140.4302  141.0962  168.8857 C.3     1  UNL1        0.0019
     13 C         139.2323  140.2458  169.1885 C.3     1  UNL1        0.0001
     14 C         140.9554  141.1797  167.4831 C.3     1  UNL1        0.0225
     15 C         139.6098  139.6461  165.2837 C.3     1  UNL1        0.0225
     16 N         143.8617  143.3076  163.7966 N.pl3   1  UNL1       -0.2892
     17 C         145.8174  141.6123  163.5708 C.3     1  UNL1        0.0232
     18 C         144.8411  142.5607  162.9405 C.3     1  UNL1        0.0924
     19 C         143.6183  144.7683  163.5578 C.3     1  UNL1        0.1095
     20 C         142.2696  145.3601  163.8414 C.3     1  UNL1        0.0939
     21 N         141.0836  144.9529  163.0182 N.3     1  UNL1       -0.2670
     22 C         139.7367  144.8096  163.6629 C.3     1  UNL1        0.1047
     23 C         138.5508  144.4024  162.8398 C.3     1  UNL1        0.1595
     24 O         138.7116  144.1384  161.3720 O.3     1  UNL1       -0.3508
     25 C         140.0584  144.2816  160.7273 C.3     1  UNL1        0.1595
     26 C         141.2444  144.6889  161.5505 C.3     1  UNL1        0.1047
@<TRIPOS>BOND
     1    17    18    1
     2    18    16    1
     3    16    19    1
     4    19    20    1
     5    20    21    1
     6    21    22    1
     7    22    23    1
     8    23    24    1
     9    24    25    1
    10    25    26    1
    11    16     1    1
    12     1     2   ar
    13     2     3   ar
    14     3     6    1
    15     6     7    1
    16     7     8    1
    17     8     9    1
    18     9    10    1
    19    10    11    1
    20    11    12    1
    21    12    13    1
    22    12    14    1
    23    10    15    1
    24     3     4   ar
    25     4     5   ar
    26    26    21    1
    27     5     1   ar
    28    14     6    1
    29    15     6    1
    30    13     8    1
