@<TRIPOS>MOLECULE
*****
 35 37 0 0 0
SMALL
GASTEIGER

@<TRIPOS>ATOM
      1 C         138.7307  142.5401  156.2669 C.ar    1  UNL1        0.1390
      2 C         137.7413  141.4757  156.6385 C.ar    1  UNL1        0.0382
      3 C         137.5385  141.1102  158.0791 C.ar    1  UNL1        0.0179
      4 C         138.3251  141.8091  159.1481 C.ar    1  UNL1        0.0551
      5 C         139.3145  142.8735  158.7765 C.ar    1  UNL1        0.0702
      6 C         139.5173  143.2390  157.3359 C.ar    1  UNL1        0.0427
      7 N         138.1222  141.4437  160.5887 N.am    1  UNL1       -0.2803
      8 C         139.0353  140.4521  161.2466 C.2     1  UNL1        0.2495
      9 O         140.1514  139.8259  160.4640 O.2     1  UNL1       -0.2698
     10 H         137.3898  141.8546  161.1023 H       1  UNL1        0.1552
     11 C         138.8325  140.0866  162.6872 C.ar    1  UNL1        0.0537
     12 C         139.0085  138.6651  163.1323 C.ar    1  UNL1        0.0048
     13 C         138.8057  138.2996  164.5729 C.ar    1  UNL1        0.0075
     14 C         138.4268  139.3557  165.5684 C.ar    1  UNL1        0.0816
     15 C         138.2508  140.7774  165.1233 C.ar    1  UNL1        0.0075
     16 C         138.4536  141.1428  163.6827 C.ar    1  UNL1        0.0048
     17 C         138.2240  138.9903  167.0090 C.2     1  UNL1        0.3151
     18 N         137.1485  138.0172  167.3916 N.2     1  UNL1       -0.0991
     19 H         136.5758  137.6184  166.6973 H       1  UNL1        0.3633
     20 N         139.0967  139.5979  168.0669 N.pl3   1  UNL1       -0.1833
     21 C         138.5302  139.9043  169.4216 C.3     1  UNL1        0.2536
     22 C         140.5358  139.8992  167.7702 C.3     1  UNL1        0.2536
     23 C         140.1011  143.5725  159.8455 C.2     1  UNL1        0.2518
     24 O         139.9093  145.0418  160.0783 O.2     1  UNL1       -0.2697
     25 N         141.0796  142.8021  160.6816 N.am    1  UNL1       -0.2658
     26 H         141.2055  141.8377  160.5287 H       1  UNL1        0.1566
     27 C         141.8662  143.5010  161.7506 C.ar    1  UNL1        0.1344
     28 C         141.2158  143.8425  163.0584 C.ar    1  UNL1        0.0354
     29 C         142.0025  144.5414  164.1273 C.ar    1  UNL1        0.0158
     30 C         143.4395  144.8989  163.8884 C.ar    1  UNL1        0.0769
     31 CL        144.2262  145.5979  164.9574 Cl      1  UNL1       -0.0806
     32 C         144.0900  144.5575  162.5807 C.ar    1  UNL1        0.1116
     33 N         143.3033  143.8585  161.5117 N.ar    1  UNL1       -0.2281
     34 C         139.5329  144.2326  154.4664 C.3     1  UNL1        0.2525
     35 O         138.9336  142.9055  154.8263 O.3     1  UNL1       -0.4714
@<TRIPOS>BOND
     1    34    35    1
     2    35     1    1
     3     1     2   ar
     4     2     3   ar
     5     3     4   ar
     6     4     7    1
     7     7     8   am
     8     8     9    2
     9     8    11    1
    10    11    12   ar
    11    12    13   ar
    12    13    14   ar
    13    14    17    1
    14    17    18    2
    15    17    20    1
    16    20    21    1
    17    20    22    1
    18    14    15   ar
    19    15    16   ar
    20     4     5   ar
    21     5    23    1
    22    23    24    2
    23    23    25   am
    24    25    27    1
    25    27    28   ar
    26    28    29   ar
    27    29    30   ar
    28    30    31    1
    29    30    32   ar
    30    32    33   ar
    31     5     6   ar
    32     6     1   ar
    33    16    11   ar
    34    33    27   ar
    35     7    10    1
    36    18    19    1
    37    25    26    1
@<TRIPOS>MOLECULE
*****
 35 37 0 0 0
SMALL
GASTEIGER

@<TRIPOS>ATOM
      1 C         139.8974  143.3478  154.6396 C.ar    1  UNL1        0.1390
      2 C         138.7121  143.4800  153.7299 C.ar    1  UNL1        0.0382
      3 C         137.3474  143.0892  154.2146 C.ar    1  UNL1        0.0179
      4 C         137.1680  142.5662  155.6089 C.ar    1  UNL1        0.0551
      5 C         138.3533  142.4340  156.5186 C.ar    1  UNL1        0.0702
      6 C         139.7180  142.8248  156.0339 C.ar    1  UNL1        0.0427
      7 N         135.8033  142.1754  156.0936 N.am    1  UNL1       -0.2803
      8 C         135.1891  140.8831  155.6434 C.2     1  UNL1        0.2495
      9 O         135.9397  139.9815  154.7085 O.2     1  UNL1       -0.2698
     10 H         135.3107  142.7671  156.7072 H       1  UNL1        0.1552
     11 C         133.8245  140.4923  156.1281 C.ar    1  UNL1        0.0537
     12 C         133.6763  139.4243  157.1709 C.ar    1  UNL1        0.0048
     13 C         132.3116  139.0335  157.6555 C.ar    1  UNL1        0.0075
     14 C         131.0951  139.7107  157.0974 C.ar    1  UNL1        0.0816
     15 C         131.2432  140.7787  156.0545 C.ar    1  UNL1        0.0075
     16 C         132.6079  141.1695  155.5698 C.ar    1  UNL1        0.0048
     17 C         129.7304  139.3199  157.5820 C.2     1  UNL1        0.3151
     18 N         129.4786  139.1407  159.0498 N.2     1  UNL1       -0.0991
     19 H         130.2091  139.2795  159.6951 H       1  UNL1        0.3633
     20 N         128.6174  139.1083  156.5988 N.pl3   1  UNL1       -0.1833
     21 C         127.4043  139.9896  156.6382 C.3     1  UNL1        0.2536
     22 C         128.7177  138.0154  155.5763 C.3     1  UNL1        0.2536
     23 C         138.1739  141.9109  157.9130 C.2     1  UNL1        0.2518
     24 O         137.4049  140.6443  158.1457 O.2     1  UNL1       -0.2697
     25 N         138.7637  142.6544  159.0746 N.am    1  UNL1       -0.2658
     26 H         139.2684  143.4858  158.9218 H       1  UNL1        0.1566
     27 C         138.5843  142.1314  160.4690 C.ar    1  UNL1        0.1344
     28 C         139.2643  140.8614  160.8869 C.ar    1  UNL1        0.0354
     29 C         139.0850  140.3384  162.2812 C.ar    1  UNL1        0.0158
     30 C         138.2255  141.0854  163.2577 C.ar    1  UNL1        0.0769
     31 CL        138.0462  140.5623  164.6521 Cl      1  UNL1       -0.0806
     32 C         137.5455  142.3554  162.8398 C.ar    1  UNL1        0.1116
     33 N         137.7249  142.8783  161.4454 N.ar    1  UNL1       -0.2281
     34 C         141.7508  145.1441  154.3433 C.3     1  UNL1        0.2525
     35 O         141.2621  143.7386  154.1549 O.3     1  UNL1       -0.4714
@<TRIPOS>BOND
     1    34    35    1
     2    35     1    1
     3     1     2   ar
     4     2     3   ar
     5     3     4   ar
     6     4     7    1
     7     7     8   am
     8     8     9    2
     9     8    11    1
    10    11    12   ar
    11    12    13   ar
    12    13    14   ar
    13    14    17    1
    14    17    18    2
    15    17    20    1
    16    20    21    1
    17    20    22    1
    18    14    15   ar
    19    15    16   ar
    20     4     5   ar
    21     5    23    1
    22    23    24    2
    23    23    25   am
    24    25    27    1
    25    27    28   ar
    26    28    29   ar
    27    29    30   ar
    28    30    31    1
    29    30    32   ar
    30    32    33   ar
    31     5     6   ar
    32     6     1   ar
    33    16    11   ar
    34    33    27   ar
    35     7    10    1
    36    18    19    1
    37    25    26    1
@<TRIPOS>MOLECULE
*****
 35 37 0 0 0
SMALL
GASTEIGER

@<TRIPOS>ATOM
      1 C         146.6082  141.4716  155.1294 C.ar    1  UNL1        0.1390
      2 C         146.4624  142.4000  156.2984 C.ar    1  UNL1        0.0382
      3 C         145.4522  142.1067  157.3677 C.ar    1  UNL1        0.0179
      4 C         144.5879  140.8849  157.2680 C.ar    1  UNL1        0.0551
      5 C         144.7337  139.9564  156.0990 C.ar    1  UNL1        0.0702
      6 C         145.7439  140.2497  155.0297 C.ar    1  UNL1        0.0427
      7 N         143.5777  140.5915  158.3374 N.am    1  UNL1       -0.2803
      8 C         142.2978  141.3716  158.3943 C.2     1  UNL1        0.2495
      9 O         142.0280  142.4451  157.3819 O.2     1  UNL1       -0.2698
     10 H         143.7547  139.8870  159.0019 H       1  UNL1        0.1552
     11 C         141.2876  141.0782  159.4637 C.ar    1  UNL1        0.0537
     12 C         141.7358  140.8521  160.8771 C.ar    1  UNL1        0.0048
     13 C         140.7257  140.5587  161.9465 C.ar    1  UNL1        0.0075
     14 C         139.2672  140.4915  161.6024 C.ar    1  UNL1        0.0816
     15 C         138.8189  140.7176  160.1888 C.ar    1  UNL1        0.0075
     16 C         139.8291  141.0109  159.1195 C.ar    1  UNL1        0.0048
     17 C         138.2571  140.1981  162.6717 C.2     1  UNL1        0.3151
     18 N         136.9967  141.0071  162.7550 N.2     1  UNL1       -0.0991
     19 H         136.8325  141.7306  162.1079 H       1  UNL1        0.3633
     20 N         138.5073  139.0957  163.6577 N.pl3   1  UNL1       -0.1833
     21 C         138.4722  139.3836  165.1294 C.3     1  UNL1        0.2536
     22 C         138.7927  137.7056  163.1720 C.3     1  UNL1        0.2536
     23 C         143.8693  138.7345  155.9993 C.2     1  UNL1        0.2518
     24 O         142.3938  138.8372  156.2488 O.2     1  UNL1       -0.2697
     25 N         144.4805  137.4099  155.6501 N.am    1  UNL1       -0.2658
     26 H         145.4489  137.3425  155.4864 H       1  UNL1        0.1566
     27 C         143.6161  136.1880  155.5504 C.ar    1  UNL1        0.1344
     28 C         142.7774  135.9604  154.3278 C.ar    1  UNL1        0.0354
     29 C         141.9131  134.7385  154.2282 C.ar    1  UNL1        0.0158
     30 C         141.8875  133.7443  155.3511 C.ar    1  UNL1        0.0769
     31 CL        141.0231  132.5224  155.2513 Cl      1  UNL1       -0.0806
     32 C         142.7262  133.9719  156.5736 C.ar    1  UNL1        0.1116
     33 N         143.5905  135.1938  156.6733 N.ar    1  UNL1       -0.2281
     34 C         147.4613  142.9784  153.1925 C.3     1  UNL1        0.2525
     35 O         147.6184  141.7649  154.0600 O.3     1  UNL1       -0.4714
@<TRIPOS>BOND
     1    34    35    1
     2    35     1    1
     3     1     2   ar
     4     2     3   ar
     5     3     4   ar
     6     4     7    1
     7     7     8   am
     8     8     9    2
     9     8    11    1
    10    11    12   ar
    11    12    13   ar
    12    13    14   ar
    13    14    17    1
    14    17    18    2
    15    17    20    1
    16    20    21    1
    17    20    22    1
    18    14    15   ar
    19    15    16   ar
    20     4     5   ar
    21     5    23    1
    22    23    24    2
    23    23    25   am
    24    25    27    1
    25    27    28   ar
    26    28    29   ar
    27    29    30   ar
    28    30    31    1
    29    30    32   ar
    30    32    33   ar
    31     5     6   ar
    32     6     1   ar
    33    16    11   ar
    34    33    27   ar
    35     7    10    1
    36    18    19    1
    37    25    26    1
@<TRIPOS>MOLECULE
*****
 35 37 0 0 0
SMALL
GASTEIGER

@<TRIPOS>ATOM
      1 C         139.5364  143.9310  154.9567 C.ar    1  UNL1        0.1390
      2 C         138.2761  144.3196  154.2424 C.ar    1  UNL1        0.0382
      3 C         136.9652  143.7168  154.6525 C.ar    1  UNL1        0.0179
      4 C         136.9146  142.7254  155.7770 C.ar    1  UNL1        0.0551
      5 C         138.1750  142.3368  156.4913 C.ar    1  UNL1        0.0702
      6 C         139.4859  142.9396  156.0812 C.ar    1  UNL1        0.0427
      7 N         135.6037  142.1227  156.1871 N.am    1  UNL1       -0.2803
      8 C         134.9351  141.1104  155.3050 C.2     1  UNL1        0.2495
      9 O         135.5773  140.7008  154.0127 O.2     1  UNL1       -0.2698
     10 H         135.1822  142.3914  157.0352 H       1  UNL1        0.1552
     11 C         133.6242  140.5076  155.7151 C.ar    1  UNL1        0.0537
     12 C         132.3556  141.2922  155.5566 C.ar    1  UNL1        0.0048
     13 C         131.0447  140.6894  155.9667 C.ar    1  UNL1        0.0075
     14 C         131.0023  139.3020  156.5353 C.ar    1  UNL1        0.0816
     15 C         132.2709  138.5174  156.6939 C.ar    1  UNL1        0.0075
     16 C         133.5818  139.1201  156.2837 C.ar    1  UNL1        0.0048
     17 C         129.6914  138.6992  156.9454 C.2     1  UNL1        0.3151
     18 N         129.3496  137.2974  156.5355 N.2     1  UNL1       -0.0991
     19 H         129.9856  136.7730  155.9973 H       1  UNL1        0.3633
     20 N         128.7224  139.4983  157.7655 N.pl3   1  UNL1       -0.1833
     21 C         128.8026  139.4667  159.2630 C.3     1  UNL1        0.2536
     22 C         127.6731  140.3290  157.0880 C.3     1  UNL1        0.2536
     23 C         138.1245  141.3453  157.6159 C.2     1  UNL1        0.2518
     24 O         137.2134  140.1570  157.5277 O.2     1  UNL1       -0.2697
     25 N         138.9851  141.5423  158.8285 N.am    1  UNL1       -0.2658
     26 H         139.5831  142.3222  158.8864 H       1  UNL1        0.1566
     27 C         138.9346  140.5508  159.9531 C.ar    1  UNL1        0.1344
     28 C         138.0228  140.7866  161.1205 C.ar    1  UNL1        0.0354
     29 C         137.9724  139.7952  162.2450 C.ar    1  UNL1        0.0158
     30 C         138.8337  138.5679  162.2020 C.ar    1  UNL1        0.0769
     31 CL        138.7832  137.5765  163.3266 Cl      1  UNL1       -0.0806
     32 C         139.7455  138.3321  161.0346 C.ar    1  UNL1        0.1116
     33 N         139.7960  139.3235  159.9101 N.ar    1  UNL1       -0.2281
     34 C         142.1322  143.9571  155.0628 C.3     1  UNL1        0.2525
     35 O         140.8473  144.5338  154.5466 O.3     1  UNL1       -0.4714
@<TRIPOS>BOND
     1    34    35    1
     2    35     1    1
     3     1     2   ar
     4     2     3   ar
     5     3     4   ar
     6     4     7    1
     7     7     8   am
     8     8     9    2
     9     8    11    1
    10    11    12   ar
    11    12    13   ar
    12    13    14   ar
    13    14    17    1
    14    17    18    2
    15    17    20    1
    16    20    21    1
    17    20    22    1
    18    14    15   ar
    19    15    16   ar
    20     4     5   ar
    21     5    23    1
    22    23    24    2
    23    23    25   am
    24    25    27    1
    25    27    28   ar
    26    28    29   ar
    27    29    30   ar
    28    30    31    1
    29    30    32   ar
    30    32    33   ar
    31     5     6   ar
    32     6     1   ar
    33    16    11   ar
    34    33    27   ar
    35     7    10    1
    36    18    19    1
    37    25    26    1
@<TRIPOS>MOLECULE
*****
 35 37 0 0 0
SMALL
GASTEIGER

@<TRIPOS>ATOM
      1 C         145.5780  141.7365  154.0793 C.ar    1  UNL1        0.1390
      2 C         145.9698  142.4181  155.3567 C.ar    1  UNL1        0.0382
      3 C         145.6138  141.8002  156.6763 C.ar    1  UNL1        0.0179
      4 C         144.8660  140.5006  156.7185 C.ar    1  UNL1        0.0551
      5 C         144.4741  139.8190  155.4411 C.ar    1  UNL1        0.0702
      6 C         144.8302  140.4369  154.1215 C.ar    1  UNL1        0.0427
      7 N         144.5099  139.8826  158.0381 N.am    1  UNL1       -0.2803
      8 C         143.2713  140.3209  158.7617 C.2     1  UNL1        0.2495
      9 O         142.3885  141.3771  158.1657 O.2     1  UNL1       -0.2698
     10 H         145.0893  139.1894  158.4293 H       1  UNL1        0.1552
     11 C         142.9153  139.7029  160.0813 C.ar    1  UNL1        0.0537
     12 C         141.6035  140.0280  160.7322 C.ar    1  UNL1        0.0048
     13 C         141.2475  139.4100  162.0518 C.ar    1  UNL1        0.0075
     14 C         142.2032  138.4670  162.7205 C.ar    1  UNL1        0.0816
     15 C         143.5150  138.1419  162.0697 C.ar    1  UNL1        0.0075
     16 C         143.8711  138.7598  160.7501 C.ar    1  UNL1        0.0048
     17 C         141.8472  137.8490  164.0402 C.2     1  UNL1        0.3151
     18 N         141.1880  136.5024  164.0842 N.2     1  UNL1       -0.0991
     19 H         140.9890  136.0241  163.2470 H       1  UNL1        0.3633
     20 N         142.1504  138.5778  165.3157 N.pl3   1  UNL1       -0.1833
     21 C         143.4756  138.3864  165.9920 C.3     1  UNL1        0.2536
     22 C         141.1285  139.4978  165.9150 C.3     1  UNL1        0.2536
     23 C         143.7263  138.5193  155.4833 C.2     1  UNL1        0.2518
     24 O         142.2323  138.5178  155.6180 O.2     1  UNL1       -0.2697
     25 N         144.4723  137.2214  155.3906 N.am    1  UNL1       -0.2658
     26 H         145.4528  137.2224  155.3022 H       1  UNL1        0.1566
     27 C         143.7245  135.9217  155.4328 C.ar    1  UNL1        0.1344
     28 C         143.7430  135.0858  156.6781 C.ar    1  UNL1        0.0354
     29 C         142.9952  133.7862  156.7202 C.ar    1  UNL1        0.0158
     30 C         142.2288  133.3226  155.5170 C.ar    1  UNL1        0.0769
     31 CL        141.4809  132.0230  155.5591 Cl      1  UNL1       -0.0806
     32 C         142.2102  134.1586  154.2717 C.ar    1  UNL1        0.1116
     33 N         142.9581  135.4581  154.2296 N.ar    1  UNL1       -0.2281
     34 C         147.2815  142.9841  152.5656 C.3     1  UNL1        0.2525
     35 O         145.9340  142.3545  152.7597 O.3     1  UNL1       -0.4714
@<TRIPOS>BOND
     1    34    35    1
     2    35     1    1
     3     1     2   ar
     4     2     3   ar
     5     3     4   ar
     6     4     7    1
     7     7     8   am
     8     8     9    2
     9     8    11    1
    10    11    12   ar
    11    12    13   ar
    12    13    14   ar
    13    14    17    1
    14    17    18    2
    15    17    20    1
    16    20    21    1
    17    20    22    1
    18    14    15   ar
    19    15    16   ar
    20     4     5   ar
    21     5    23    1
    22    23    24    2
    23    23    25   am
    24    25    27    1
    25    27    28   ar
    26    28    29   ar
    27    29    30   ar
    28    30    31    1
    29    30    32   ar
    30    32    33   ar
    31     5     6   ar
    32     6     1   ar
    33    16    11   ar
    34    33    27   ar
    35     7    10    1
    36    18    19    1
    37    25    26    1
@<TRIPOS>MOLECULE
*****
 35 37 0 0 0
SMALL
GASTEIGER

@<TRIPOS>ATOM
      1 C         141.7830  138.0995  155.3666 C.ar    1  UNL1        0.1390
      2 C         142.3006  136.8738  156.0591 C.ar    1  UNL1        0.0382
      3 C         142.6717  136.9330  157.5112 C.ar    1  UNL1        0.0179
      4 C         142.5252  138.2180  158.2710 C.ar    1  UNL1        0.0551
      5 C         142.0075  139.4438  157.5785 C.ar    1  UNL1        0.0702
      6 C         141.6364  139.3845  156.1264 C.ar    1  UNL1        0.0427
      7 N         142.8963  138.2773  159.7231 N.am    1  UNL1       -0.2803
      8 C         141.8234  138.2992  160.7711 C.2     1  UNL1        0.2495
      9 O         140.3793  138.2619  160.3670 O.2     1  UNL1       -0.2698
     10 H         143.8440  138.3018  159.9884 H       1  UNL1        0.1552
     11 C         142.1945  138.3584  162.2233 C.ar    1  UNL1        0.0537
     12 C         141.3019  137.7296  163.2517 C.ar    1  UNL1        0.0048
     13 C         141.6730  137.7888  164.7039 C.ar    1  UNL1        0.0075
     14 C         142.9367  138.4769  165.1276 C.ar    1  UNL1        0.0816
     15 C         143.8293  139.1059  164.0991 C.ar    1  UNL1        0.0075
     16 C         143.4582  139.0466  162.6470 C.ar    1  UNL1        0.0048
     17 C         143.3078  138.5362  166.5798 C.2     1  UNL1        0.3151
     18 N         144.2983  137.5597  167.1412 N.2     1  UNL1       -0.0991
     19 H         144.7049  136.8799  166.5565 H       1  UNL1        0.3633
     20 N         142.6882  139.5720  167.4705 N.pl3   1  UNL1       -0.1833
     21 C         142.1871  140.8599  166.8873 C.3     1  UNL1        0.2536
     22 C         142.5698  139.3198  168.9444 C.3     1  UNL1        0.2536
     23 C         141.8609  140.7289  158.3383 C.2     1  UNL1        0.2518
     24 O         143.0495  141.6219  158.5378 O.2     1  UNL1       -0.2697
     25 N         140.5258  141.1209  158.8984 N.am    1  UNL1       -0.2658
     26 H         139.7458  140.5347  158.7675 H       1  UNL1        0.1566
     27 C         140.3793  142.4060  159.6582 C.ar    1  UNL1        0.1344
     28 C         140.1787  142.3799  161.1444 C.ar    1  UNL1        0.0354
     29 C         140.0322  143.6649  161.9041 C.ar    1  UNL1        0.0158
     30 C         140.0861  144.9761  161.1775 C.ar    1  UNL1        0.0769
     31 CL        139.9396  146.2612  161.9372 Cl      1  UNL1       -0.0806
     32 C         140.2867  145.0022  159.6912 C.ar    1  UNL1        0.1116
     33 N         140.4332  143.7171  158.9315 N.ar    1  UNL1       -0.2281
     34 C         140.6725  136.8509  153.3772 C.3     1  UNL1        0.2525
     35 O         141.4119  138.0403  153.9145 O.3     1  UNL1       -0.4714
@<TRIPOS>BOND
     1    34    35    1
     2    35     1    1
     3     1     2   ar
     4     2     3   ar
     5     3     4   ar
     6     4     7    1
     7     7     8   am
     8     8     9    2
     9     8    11    1
    10    11    12   ar
    11    12    13   ar
    12    13    14   ar
    13    14    17    1
    14    17    18    2
    15    17    20    1
    16    20    21    1
    17    20    22    1
    18    14    15   ar
    19    15    16   ar
    20     4     5   ar
    21     5    23    1
    22    23    24    2
    23    23    25   am
    24    25    27    1
    25    27    28   ar
    26    28    29   ar
    27    29    30   ar
    28    30    31    1
    29    30    32   ar
    30    32    33   ar
    31     5     6   ar
    32     6     1   ar
    33    16    11   ar
    34    33    27   ar
    35     7    10    1
    36    18    19    1
    37    25    26    1
@<TRIPOS>MOLECULE
*****
 35 37 0 0 0
SMALL
GASTEIGER

@<TRIPOS>ATOM
      1 C         138.5279  139.1116  165.6582 C.ar    1  UNL1        0.1390
      2 C         138.8073  137.7118  165.1976 C.ar    1  UNL1        0.0382
      3 C         139.0966  137.4420  163.7506 C.ar    1  UNL1        0.0179
      4 C         139.1064  138.5721  162.7644 C.ar    1  UNL1        0.0551
      5 C         138.8270  139.9720  163.2251 C.ar    1  UNL1        0.0702
      6 C         138.5377  140.2417  164.6720 C.ar    1  UNL1        0.0427
      7 N         139.3957  138.3024  161.3175 N.am    1  UNL1       -0.2803
      8 C         140.7662  138.5613  160.7657 C.2     1  UNL1        0.2495
      9 O         141.8476  139.0900  161.6609 O.2     1  UNL1       -0.2698
     10 H         138.6860  137.9554  160.7300 H       1  UNL1        0.1552
     11 C         141.0555  138.2916  159.3188 C.ar    1  UNL1        0.0537
     12 C         142.4546  137.9756  158.8799 C.ar    1  UNL1        0.0048
     13 C         142.7438  137.7058  157.4330 C.ar    1  UNL1        0.0075
     14 C         141.6340  137.7521  156.4250 C.ar    1  UNL1        0.0816
     15 C         140.2349  138.0681  156.8639 C.ar    1  UNL1        0.0075
     16 C         139.9456  138.3378  158.3108 C.ar    1  UNL1        0.0048
     17 C         141.9233  137.4823  154.9781 C.2     1  UNL1        0.3151
     18 N         142.5039  138.5632  154.1151 N.2     1  UNL1       -0.0991
     19 H         142.6951  139.4496  154.4984 H       1  UNL1        0.3633
     20 N         141.6320  136.1317  154.3941 N.pl3   1  UNL1       -0.1833
     21 C         141.4590  134.9460  155.2964 C.3     1  UNL1        0.2536
     22 C         141.5137  135.9668  152.9079 C.3     1  UNL1        0.2536
     23 C         138.8368  141.1022  162.2388 C.2     1  UNL1        0.2518
     24 O         137.5435  141.6424  161.7044 O.2     1  UNL1       -0.2697
     25 N         140.1398  141.6921  161.7871 N.am    1  UNL1       -0.2658
     26 H         140.9886  141.3375  162.1379 H       1  UNL1        0.1566
     27 C         140.1496  142.8223  160.8009 C.ar    1  UNL1        0.1344
     28 C         139.9819  142.5417  159.3369 C.ar    1  UNL1        0.0354
     29 C         139.9917  143.6719  158.3508 C.ar    1  UNL1        0.0158
     30 C         140.1692  145.0827  158.8285 C.ar    1  UNL1        0.0769
     31 CL        140.1790  146.2129  157.8423 Cl      1  UNL1       -0.0806
     32 C         140.3369  145.3632  160.2925 C.ar    1  UNL1        0.1116
     33 N         140.3271  144.2331  161.2786 N.ar    1  UNL1       -0.2281
     34 C         139.3361  139.8471  168.0153 C.3     1  UNL1        0.2525
     35 O         138.2386  139.3814  167.1052 O.3     1  UNL1       -0.4714
@<TRIPOS>BOND
     1    34    35    1
     2    35     1    1
     3     1     2   ar
     4     2     3   ar
     5     3     4   ar
     6     4     7    1
     7     7     8   am
     8     8     9    2
     9     8    11    1
    10    11    12   ar
    11    12    13   ar
    12    13    14   ar
    13    14    17    1
    14    17    18    2
    15    17    20    1
    16    20    21    1
    17    20    22    1
    18    14    15   ar
    19    15    16   ar
    20     4     5   ar
    21     5    23    1
    22    23    24    2
    23    23    25   am
    24    25    27    1
    25    27    28   ar
    26    28    29   ar
    27    29    30   ar
    28    30    31    1
    29    30    32   ar
    30    32    33   ar
    31     5     6   ar
    32     6     1   ar
    33    16    11   ar
    34    33    27   ar
    35     7    10    1
    36    18    19    1
    37    25    26    1
@<TRIPOS>MOLECULE
*****
 35 37 0 0 0
SMALL
GASTEIGER

@<TRIPOS>ATOM
      1 C         142.3969  140.3431  168.9402 C.ar    1  UNL1        0.1390
      2 C         142.9041  139.0073  168.4838 C.ar    1  UNL1        0.0382
      3 C         143.1236  138.7477  167.0228 C.ar    1  UNL1        0.0179
      4 C         142.8361  139.8238  166.0183 C.ar    1  UNL1        0.0551
      5 C         142.3289  141.1596  166.4747 C.ar    1  UNL1        0.0702
      6 C         142.1094  141.4193  167.9356 C.ar    1  UNL1        0.0427
      7 N         143.0556  139.5642  164.5573 N.am    1  UNL1       -0.2803
      8 C         141.8914  139.2340  163.6710 C.2     1  UNL1        0.2495
      9 O         140.5076  139.1634  164.2456 O.2     1  UNL1       -0.2698
     10 H         143.9638  139.6105  164.1802 H       1  UNL1        0.1552
     11 C         142.1110  138.9743  162.2101 C.ar    1  UNL1        0.0537
     12 C         141.3989  139.8063  161.1851 C.ar    1  UNL1        0.0048
     13 C         141.6185  139.5467  159.7242 C.ar    1  UNL1        0.0075
     14 C         142.5501  138.4550  159.2882 C.ar    1  UNL1        0.0816
     15 C         143.2623  137.6228  160.3131 C.ar    1  UNL1        0.0075
     16 C         143.0427  137.8825  161.7741 C.ar    1  UNL1        0.0048
     17 C         142.7697  138.1953  157.8272 C.2     1  UNL1        0.3151
     18 N         143.7484  139.0302  157.0558 N.2     1  UNL1       -0.0991
     19 H         144.2466  139.7487  157.5084 H       1  UNL1        0.3633
     20 N         142.0105  137.1007  157.1376 N.pl3   1  UNL1       -0.1833
     21 C         140.5738  137.3076  156.7595 C.3     1  UNL1        0.2536
     22 C         142.6881  135.7992  156.8262 C.3     1  UNL1        0.2536
     23 C         142.0413  142.2359  165.4701 C.2     1  UNL1        0.2518
     24 O         143.0378  143.3334  165.2408 O.2     1  UNL1       -0.2697
     25 N         140.7574  142.2146  164.6949 N.am    1  UNL1       -0.2658
     26 H         140.1034  141.4942  164.8455 H       1  UNL1        0.1566
     27 C         140.4698  143.2908  163.6904 C.ar    1  UNL1        0.1344
     28 C         141.2705  143.3685  162.4244 C.ar    1  UNL1        0.0354
     29 C         140.9829  144.4447  161.4199 C.ar    1  UNL1        0.0158
     30 C         139.8946  145.4433  161.6815 C.ar    1  UNL1        0.0769
     31 CL        139.6070  146.5195  160.6769 Cl      1  UNL1       -0.0806
     32 C         139.0938  145.3656  162.9474 C.ar    1  UNL1        0.1116
     33 N         139.3815  144.2894  163.9519 N.ar    1  UNL1       -0.2281
     34 C         141.3110  141.7468  170.8376 C.3     1  UNL1        0.2525
     35 O         142.1774  140.6028  170.4011 O.3     1  UNL1       -0.4714
@<TRIPOS>BOND
     1    34    35    1
     2    35     1    1
     3     1     2   ar
     4     2     3   ar
     5     3     4   ar
     6     4     7    1
     7     7     8   am
     8     8     9    2
     9     8    11    1
    10    11    12   ar
    11    12    13   ar
    12    13    14   ar
    13    14    17    1
    14    17    18    2
    15    17    20    1
    16    20    21    1
    17    20    22    1
    18    14    15   ar
    19    15    16   ar
    20     4     5   ar
    21     5    23    1
    22    23    24    2
    23    23    25   am
    24    25    27    1
    25    27    28   ar
    26    28    29   ar
    27    29    30   ar
    28    30    31    1
    29    30    32   ar
    30    32    33   ar
    31     5     6   ar
    32     6     1   ar
    33    16    11   ar
    34    33    27   ar
    35     7    10    1
    36    18    19    1
    37    25    26    1
@<TRIPOS>MOLECULE
*****
 35 37 0 0 0
SMALL
GASTEIGER

@<TRIPOS>ATOM
      1 C         137.6891  141.2832  156.5660 C.ar    1  UNL1        0.1390
      2 C         137.6686  140.3704  155.3759 C.ar    1  UNL1        0.0382
      3 C         138.4332  139.0802  155.4070 C.ar    1  UNL1        0.0179
      4 C         139.2182  138.7029  156.6282 C.ar    1  UNL1        0.0551
      5 C         139.2387  139.6157  157.8183 C.ar    1  UNL1        0.0702
      6 C         138.4741  140.9059  157.7872 C.ar    1  UNL1        0.0427
      7 N         139.9828  137.4128  156.6593 N.am    1  UNL1       -0.2803
      8 C         141.1886  137.2343  155.7852 C.2     1  UNL1        0.2495
      9 O         141.6299  138.3459  154.8798 O.2     1  UNL1       -0.2698
     10 H         139.6932  136.6831  157.2535 H       1  UNL1        0.1552
     11 C         141.9532  135.9441  155.8163 C.ar    1  UNL1        0.0537
     12 C         142.9619  135.6960  156.8983 C.ar    1  UNL1        0.0048
     13 C         143.7265  134.4059  156.9294 C.ar    1  UNL1        0.0075
     14 C         143.4823  133.3638  155.8785 C.ar    1  UNL1        0.0816
     15 C         142.4735  133.6119  154.7964 C.ar    1  UNL1        0.0075
     16 C         141.7089  134.9021  154.7653 C.ar    1  UNL1        0.0048
     17 C         144.2469  132.0737  155.9096 C.2     1  UNL1        0.3151
     18 N         145.5973  132.0177  156.5601 N.2     1  UNL1       -0.0991
     19 H         145.9818  132.8277  156.9667 H       1  UNL1        0.3633
     20 N         143.6610  130.8396  155.2901 N.pl3   1  UNL1       -0.1833
     21 C         142.6239  130.0486  156.0308 C.3     1  UNL1        0.2536
     22 C         144.1123  130.3965  153.9300 C.3     1  UNL1        0.2536
     23 C         140.0237  139.2384  159.0395 C.2     1  UNL1        0.2518
     24 O         141.4159  138.6979  158.8988 O.2     1  UNL1       -0.2697
     25 N         139.4166  139.4016  160.4014 N.am    1  UNL1       -0.2658
     26 H         138.5029  139.7563  160.4937 H       1  UNL1        0.1566
     27 C         140.2017  139.0243  161.6227 C.ar    1  UNL1        0.1344
     28 C         140.9705  140.0710  162.3731 C.ar    1  UNL1        0.0354
     29 C         141.7555  139.6937  163.5943 C.ar    1  UNL1        0.0158
     30 C         141.7717  138.2696  164.0651 C.ar    1  UNL1        0.0769
     31 CL        142.5567  137.8923  165.2863 Cl      1  UNL1       -0.0806
     32 C         141.0029  137.2228  163.3147 C.ar    1  UNL1        0.1116
     33 N         140.2179  137.6002  162.0935 N.ar    1  UNL1       -0.2281
     34 C         136.9255  143.4160  155.2940 C.3     1  UNL1        0.2525
     35 O         136.9245  142.5733  156.5349 O.3     1  UNL1       -0.4714
@<TRIPOS>BOND
     1    34    35    1
     2    35     1    1
     3     1     2   ar
     4     2     3   ar
     5     3     4   ar
     6     4     7    1
     7     7     8   am
     8     8     9    2
     9     8    11    1
    10    11    12   ar
    11    12    13   ar
    12    13    14   ar
    13    14    17    1
    14    17    18    2
    15    17    20    1
    16    20    21    1
    17    20    22    1
    18    14    15   ar
    19    15    16   ar
    20     4     5   ar
    21     5    23    1
    22    23    24    2
    23    23    25   am
    24    25    27    1
    25    27    28   ar
    26    28    29   ar
    27    29    30   ar
    28    30    31    1
    29    30    32   ar
    30    32    33   ar
    31     5     6   ar
    32     6     1   ar
    33    16    11   ar
    34    33    27   ar
    35     7    10    1
    36    18    19    1
    37    25    26    1
