@<TRIPOS>MOLECULE
*****
 20 21 0 0 0
SMALL
GASTEIGER

@<TRIPOS>ATOM
      1 C5M       140.2873  139.8978  170.7640 C.3     1    T1        0.0376
      2 C5        140.7728  140.0167  169.3497 C.ar    1    T1        0.0515
      3 C6        139.8963  140.6428  168.3059 C.ar    1    T1        0.0823
      4 N1        140.3818  140.7616  166.8917 N.ar    1    T1       -0.2574
      5 C2        141.7439  140.2543  166.5212 C.ar    1    T1        0.3322
      6 O2        142.2295  140.3732  165.1070 O.2     1    T1       -0.2464
      7 N3        142.6205  139.6282  167.5650 N.ar    1    T1       -0.2746
      8 C4        142.1349  139.5094  168.9793 C.ar    1    T1        0.2584
      9 O4        143.0116  138.8832  170.0231 O.2     1    T1       -0.2674
     10 H3        143.5145  139.2953  167.3219 H       1    T1        0.1734
     11 C1*       139.5052  141.3878  165.8479 C.3     1    T1        0.2106
     12 C2*       138.4320  140.6916  165.0645 C.3     1    T1        0.0858
     13 C3*       137.8114  141.6936  164.1367 C.3     1    T1        0.1445
     14 O3*       136.6969  141.4270  163.1688 O.3     1    T1       -0.3817
     15 C4*       138.5010  143.0091  164.3466 C.3     1    T1        0.1731
     16 O4*       139.5478  142.8200  165.4042 O.3     1    T1       -0.3327
     17 H3*       136.4827  142.2427  162.6897 H       1    T1        0.2104
     18 C5*       138.1972  144.2889  163.6256 C.3     1    T1        0.1692
     19 O5*       137.4173  144.2610  162.3446 O.3     1    T1       -0.3794
     20 H5*       137.9351  143.8083  161.6606 H       1    T1        0.2105
@<TRIPOS>BOND
     1     1     2    1
     2     2     3   ar
     3     3     4   ar
     4    11     4    1
     5    11    12    1
     6    12    13    1
     7    13    14    1
     8    13    15    1
     9    15    18    1
    10    18    19    1
    11    15    16    1
    12     4     5   ar
    13     5     6    2
    14     5     7   ar
    15     7     8   ar
    16     8     9    2
    17     8     2   ar
    18    16    11    1
    19    14    17    1
    20    19    20    1
    21     7    10    1
@<TRIPOS>MOLECULE
*****
 20 21 0 0 0
SMALL
GASTEIGER

@<TRIPOS>ATOM
      1 C5M       140.1978  140.1874  170.4769 C.3     1    T1        0.0376
      2 C5        140.7422  139.9354  169.1021 C.ar    1    T1        0.0515
      3 C6        139.8334  140.0071  167.9108 C.ar    1    T1        0.0823
      4 N1        140.3778  139.7551  166.5360 N.ar    1    T1       -0.2574
      5 C2        141.8308  139.4314  166.3524 C.ar    1    T1        0.3322
      6 O2        142.3752  139.1794  164.9775 O.2     1    T1       -0.2464
      7 N3        142.7396  139.3597  167.5436 N.ar    1    T1       -0.2746
      8 C4        142.1952  139.6117  168.9184 C.ar    1    T1        0.2584
      9 O4        143.1040  139.5401  170.1097 O.2     1    T1       -0.2674
     10 H3        143.6933  139.1473  167.4231 H       1    T1        0.1734
     11 C1*       139.4689  139.8268  165.3448 C.3     1    T1        0.2106
     12 C2*       138.4683  140.9081  165.0630 C.3     1    T1        0.0858
     13 C3*       137.7822  140.5793  163.7703 C.3     1    T1        0.1445
     14 O3*       136.7080  141.3923  163.1106 O.3     1    T1       -0.3817
     15 C4*       138.3588  139.2948  163.2530 C.3     1    T1        0.1731
     16 O4*       139.4013  138.8297  164.2261 O.3     1    T1       -0.3327
     17 H3*       136.4352  140.9597  162.2864 H       1    T1        0.2104
     18 C5*       137.9626  138.5978  161.9853 C.3     1    T1        0.1692
     19 O5*       136.9867  139.2444  161.0475 O.3     1    T1       -0.3794
     20 H5*       136.1190  139.3069  161.4764 H       1    T1        0.2105
@<TRIPOS>BOND
     1     1     2    1
     2     2     3   ar
     3     3     4   ar
     4    11     4    1
     5    11    12    1
     6    12    13    1
     7    13    14    1
     8    13    15    1
     9    15    18    1
    10    18    19    1
    11    15    16    1
    12     4     5   ar
    13     5     6    2
    14     5     7   ar
    15     7     8   ar
    16     8     9    2
    17     8     2   ar
    18    16    11    1
    19    14    17    1
    20    19    20    1
    21     7    10    1
@<TRIPOS>MOLECULE
*****
 20 21 0 0 0
SMALL
GASTEIGER

@<TRIPOS>ATOM
      1 C5M       143.0425  142.5727  169.4451 C.3     1    T1        0.0376
      2 C5        141.7782  141.7714  169.3478 C.ar    1    T1        0.0515
      3 C6        141.2730  141.3274  168.0071 C.ar    1    T1        0.0823
      4 N1        140.0088  140.5261  167.9098 N.ar    1    T1       -0.2574
      5 C2        139.2497  140.1688  169.1533 C.ar    1    T1        0.3322
      6 O2        137.9854  139.3675  169.0560 O.2     1    T1       -0.2464
      7 N3        139.7549  140.6129  170.4940 N.ar    1    T1       -0.2746
      8 C4        141.0191  141.4142  170.5912 C.ar    1    T1        0.2584
      9 O4        141.5243  141.8583  171.9320 O.2     1    T1       -0.2674
     10 H3        139.2566  140.3784  171.3101 H       1    T1        0.1734
     11 C1*       139.5036  140.0820  166.5691 C.3     1    T1        0.2106
     12 C2*       139.5812  138.6905  166.0142 C.3     1    T1        0.0858
     13 C3*       138.9577  138.7000  164.6500 C.3     1    T1        0.1445
     14 O3*       138.8211  137.5194  163.7348 O.3     1    T1       -0.3817
     15 C4*       138.4947  140.0974  164.3617 C.3     1    T1        0.1731
     16 O4*       138.8321  140.9514  165.5477 O.3     1    T1       -0.3327
     17 H3*       138.3823  137.7951  162.9148 H       1    T1        0.2104
     18 C5*       137.8138  140.5595  163.1075 C.3     1    T1        0.1692
     19 O5*       136.5431  141.3519  163.1924 O.3     1    T1       -0.3794
     20 H5*       135.8398  140.7964  163.5636 H       1    T1        0.2105
@<TRIPOS>BOND
     1     1     2    1
     2     2     3   ar
     3     3     4   ar
     4    11     4    1
     5    11    12    1
     6    12    13    1
     7    13    14    1
     8    13    15    1
     9    15    18    1
    10    18    19    1
    11    15    16    1
    12     4     5   ar
    13     5     6    2
    14     5     7   ar
    15     7     8   ar
    16     8     9    2
    17     8     2   ar
    18    16    11    1
    19    14    17    1
    20    19    20    1
    21     7    10    1
@<TRIPOS>MOLECULE
*****
 20 21 0 0 0
SMALL
GASTEIGER

@<TRIPOS>ATOM
      1 C5M       140.3608  143.5601  169.3801 C.3     1    T1        0.0376
      2 C5        141.0762  142.2447  169.2912 C.ar    1    T1        0.0515
      3 C6        141.2500  141.5739  167.9609 C.ar    1    T1        0.0823
      4 N1        141.9654  140.2585  167.8719 N.ar    1    T1       -0.2574
      5 C2        142.5070  139.6139  169.1133 C.ar    1    T1        0.3322
      6 O2        143.2224  138.2985  169.0244 O.2     1    T1       -0.2464
      7 N3        142.3332  140.2847  170.4436 N.ar    1    T1       -0.2746
      8 C4        141.6178  141.6001  170.5326 C.ar    1    T1        0.2584
      9 O4        141.4440  142.2709  171.8630 O.2     1    T1       -0.2674
     10 H3        142.6887  139.8617  171.2584 H       1    T1        0.1734
     11 C1*       142.1392  139.5877  166.5415 C.3     1    T1        0.2106
     12 C2*       143.2871  139.7871  165.5968 C.3     1    T1        0.0858
     13 C3*       143.0530  138.9224  164.3938 C.3     1    T1        0.1445
     14 O3*       143.9534  138.8111  163.1992 O.3     1    T1       -0.3817
     15 C4*       141.7602  138.1885  164.5949 C.3     1    T1        0.1731
     16 O4*       141.1956  138.5997  165.9223 O.3     1    T1       -0.3327
     17 H3*       143.5721  138.1847  162.5642 H       1    T1        0.2104
     18 C5*       141.1410  137.2145  163.6369 C.3     1    T1        0.1692
     19 O5*       141.6633  137.1065  162.2349 O.3     1    T1       -0.3794
     20 H5*       141.4889  137.9343  161.7602 H       1    T1        0.2105
@<TRIPOS>BOND
     1     1     2    1
     2     2     3   ar
     3     3     4   ar
     4    11     4    1
     5    11    12    1
     6    12    13    1
     7    13    14    1
     8    13    15    1
     9    15    18    1
    10    18    19    1
    11    15    16    1
    12     4     5   ar
    13     5     6    2
    14     5     7   ar
    15     7     8   ar
    16     8     9    2
    17     8     2   ar
    18    16    11    1
    19    14    17    1
    20    19    20    1
    21     7    10    1
@<TRIPOS>MOLECULE
*****
 20 21 0 0 0
SMALL
GASTEIGER

@<TRIPOS>ATOM
      1 C5M       139.1068  144.2005  163.8538 C.3     1    T1        0.0376
      2 C5        138.8816  142.8330  164.4275 C.ar    1    T1        0.0515
      3 C6        139.5213  142.4513  165.7295 C.ar    1    T1        0.0823
      4 N1        139.2961  141.0838  166.3032 N.ar    1    T1       -0.2574
      5 C2        138.4312  140.0980  165.5751 C.ar    1    T1        0.3322
      6 O2        138.2060  138.7305  166.1489 O.2     1    T1       -0.2464
      7 N3        137.7915  140.4798  164.2732 N.ar    1    T1       -0.2746
      8 C4        138.0167  141.8473  163.6994 C.ar    1    T1        0.2584
      9 O4        137.3770  142.2290  162.3974 O.2     1    T1       -0.2674
     10 H3        137.2239  139.8328  163.7952 H       1    T1        0.1734
     11 C1*       139.9358  140.7021  167.6052 C.3     1    T1        0.2106
     12 C2*       139.2167  140.2549  168.8433 C.3     1    T1        0.0858
     13 C3*       140.2434  139.9770  169.9009 C.3     1    T1        0.1445
     14 O3*       139.9653  139.5063  171.2977 O.3     1    T1       -0.3817
     15 C4*       141.5972  140.2524  169.3165 C.3     1    T1        0.1731
     16 O4*       141.4071  140.7005  167.8977 O.3     1    T1       -0.3327
     17 H3*       140.8023  139.4039  171.7771 H       1    T1        0.2104
     18 C5*       142.9104  140.1055  170.0262 C.3     1    T1        0.1692
     19 O5*       142.9545  140.0856  171.5254 O.3     1    T1       -0.3794
     20 H5*       142.6804  140.9505  171.8685 H       1    T1        0.2105
@<TRIPOS>BOND
     1     1     2    1
     2     2     3   ar
     3     3     4   ar
     4    11     4    1
     5    11    12    1
     6    12    13    1
     7    13    14    1
     8    13    15    1
     9    15    18    1
    10    18    19    1
    11    15    16    1
    12     4     5   ar
    13     5     6    2
    14     5     7   ar
    15     7     8   ar
    16     8     9    2
    17     8     2   ar
    18    16    11    1
    19    14    17    1
    20    19    20    1
    21     7    10    1
@<TRIPOS>MOLECULE
*****
 20 21 0 0 0
SMALL
GASTEIGER

@<TRIPOS>ATOM
      1 C5M       142.4616  142.8793  169.8282 C.3     1    T1        0.0376
      2 C5        141.3203  141.9459  169.5520 C.ar    1    T1        0.0515
      3 C6        141.1218  141.3917  168.1724 C.ar    1    T1        0.0823
      4 N1        139.9805  140.4583  167.8962 N.ar    1    T1       -0.2574
      5 C2        139.0378  140.0792  168.9996 C.ar    1    T1        0.3322
      6 O2        137.8965  139.1458  168.7233 O.2     1    T1       -0.2464
      7 N3        139.2363  140.6335  170.3792 N.ar    1    T1       -0.2746
      8 C4        140.3776  141.5668  170.6554 C.ar    1    T1        0.2584
      9 O4        140.5761  142.1211  172.0351 O.2     1    T1       -0.2674
     10 H3        138.6176  140.3847  171.1034 H       1    T1        0.1734
     11 C1*       139.7820  139.9040  166.5165 C.3     1    T1        0.2106
     12 C2*       138.7016  140.2999  165.5543 C.3     1    T1        0.0858
     13 C3*       138.8810  139.4971  164.3000 C.3     1    T1        0.1445
     14 O3*       138.0202  139.5731  163.0739 O.3     1    T1       -0.3817
     15 C4*       140.0723  138.6049  164.4870 C.3     1    T1        0.1731
     16 O4*       140.6291  138.8564  165.8569 O.3     1    T1       -0.3327
     17 H3*       138.3511  138.9508  162.4074 H       1    T1        0.2104
     18 C5*       140.6119  137.6322  163.4808 C.3     1    T1        0.1692
     19 O5*       139.8239  137.3183  162.2437 O.3     1    T1       -0.3794
     20 H5*       139.0051  136.8601  162.4895 H       1    T1        0.2105
@<TRIPOS>BOND
     1     1     2    1
     2     2     3   ar
     3     3     4   ar
     4    11     4    1
     5    11    12    1
     6    12    13    1
     7    13    14    1
     8    13    15    1
     9    15    18    1
    10    18    19    1
    11    15    16    1
    12     4     5   ar
    13     5     6    2
    14     5     7   ar
    15     7     8   ar
    16     8     9    2
    17     8     2   ar
    18    16    11    1
    19    14    17    1
    20    19    20    1
    21     7    10    1
@<TRIPOS>MOLECULE
*****
 20 21 0 0 0
SMALL
GASTEIGER

@<TRIPOS>ATOM
      1 C5M       138.2294  144.2196  163.3885 C.3     1    T1        0.0376
      2 C5        138.4891  143.0004  164.2228 C.ar    1    T1        0.0515
      3 C6        139.4125  143.0813  165.4021 C.ar    1    T1        0.0823
      4 N1        139.6722  141.8621  166.2364 N.ar    1    T1       -0.2574
      5 C2        139.0085  140.5619  165.8914 C.ar    1    T1        0.3322
      6 O2        139.2682  139.3427  166.7257 O.2     1    T1       -0.2464
      7 N3        138.0851  140.4810  164.7121 N.ar    1    T1       -0.2746
      8 C4        137.8254  141.7002  163.8778 C.ar    1    T1        0.2584
      9 O4        136.9019  141.6192  162.6985 O.2     1    T1       -0.2674
     10 H3        137.6495  139.6276  164.4857 H       1    T1        0.1734
     11 C1*       140.5956  141.9431  167.4157 C.3     1    T1        0.2106
     12 C2*       142.0343  142.3660  167.3816 C.3     1    T1        0.0858
     13 C3*       142.5703  142.2996  168.7810 C.3     1    T1        0.1445
     14 O3*       143.9683  142.6379  169.2067 O.3     1    T1       -0.3817
     15 C4*       141.4628  141.8357  169.6801 C.3     1    T1        0.1731
     16 O4*       140.2424  141.6153  168.8363 O.3     1    T1       -0.3327
     17 H3*       144.0543  142.5109  170.1645 H       1    T1        0.2104
     18 C5*       141.5589  141.6285  171.1626 C.3     1    T1        0.1692
     19 O5*       140.4970  142.1798  172.0672 O.3     1    T1       -0.3794
     20 H5*       140.5179  143.1491  172.0371 H       1    T1        0.2105
@<TRIPOS>BOND
     1     1     2    1
     2     2     3   ar
     3     3     4   ar
     4    11     4    1
     5    11    12    1
     6    12    13    1
     7    13    14    1
     8    13    15    1
     9    15    18    1
    10    18    19    1
    11    15    16    1
    12     4     5   ar
    13     5     6    2
    14     5     7   ar
    15     7     8   ar
    16     8     9    2
    17     8     2   ar
    18    16    11    1
    19    14    17    1
    20    19    20    1
    21     7    10    1
@<TRIPOS>MOLECULE
*****
 20 21 0 0 0
SMALL
GASTEIGER

@<TRIPOS>ATOM
      1 C5M       140.3272  143.9633  169.8403 C.3     1    T1        0.0376
      2 C5        140.9812  142.6232  169.6775 C.ar    1    T1        0.0515
      3 C6        141.4684  142.1854  168.3281 C.ar    1    T1        0.0823
      4 N1        142.1223  140.8453  168.1653 N.ar    1    T1       -0.2574
      5 C2        142.2890  139.9430  169.3519 C.ar    1    T1        0.3322
      6 O2        142.9429  138.6029  169.1891 O.2     1    T1       -0.2464
      7 N3        141.8018  140.3808  170.7013 N.ar    1    T1       -0.2746
      8 C4        141.1478  141.7209  170.8641 C.ar    1    T1        0.2584
      9 O4        140.6606  142.1587  172.2136 O.2     1    T1       -0.2674
     10 H3        141.9112  139.7886  171.4801 H       1    T1        0.1734
     11 C1*       142.6096  140.4075  166.8158 C.3     1    T1        0.2106
     12 C2*       142.1111  139.2249  166.0394 C.3     1    T1        0.0858
     13 C3*       142.8743  139.1620  164.7496 C.3     1    T1        0.1445
     14 O3*       142.6982  138.1355  163.6701 O.3     1    T1       -0.3817
     15 C4*       143.8445  140.3059  164.7289 C.3     1    T1        0.1731
     16 O4*       143.6809  141.0756  166.0059 O.3     1    T1       -0.3327
     17 H3*       143.3134  138.3216  162.9436 H       1    T1        0.2104
     18 C5*       144.8090  140.6240  163.6250 C.3     1    T1        0.1692
     19 O5*       144.6984  139.9184  162.3060 O.3     1    T1       -0.3794
     20 H5*       144.8942  138.9760  162.4260 H       1    T1        0.2105
@<TRIPOS>BOND
     1     1     2    1
     2     2     3   ar
     3     3     4   ar
     4    11     4    1
     5    11    12    1
     6    12    13    1
     7    13    14    1
     8    13    15    1
     9    15    18    1
    10    18    19    1
    11    15    16    1
    12     4     5   ar
    13     5     6    2
    14     5     7   ar
    15     7     8   ar
    16     8     9    2
    17     8     2   ar
    18    16    11    1
    19    14    17    1
    20    19    20    1
    21     7    10    1
@<TRIPOS>MOLECULE
*****
 20 21 0 0 0
SMALL
GASTEIGER

@<TRIPOS>ATOM
      1 C5M       140.2061  142.5385  171.0273 C.3     1    T1        0.0376
      2 C5        140.0589  141.9582  169.6519 C.ar    1    T1        0.0515
      3 C6        140.4183  142.7791  168.4491 C.ar    1    T1        0.0823
      4 N1        140.2711  142.1988  167.0738 N.ar    1    T1       -0.2574
      5 C2        139.7644  140.7976  166.9012 C.ar    1    T1        0.3322
      6 O2        139.6172  140.2173  165.5259 O.2     1    T1       -0.2464
      7 N3        139.4049  139.9767  168.1041 N.ar    1    T1       -0.2746
      8 C4        139.5522  140.5570  169.4794 C.ar    1    T1        0.2584
      9 O4        139.1927  139.7360  170.6823 O.2     1    T1       -0.2674
     10 H3        139.0724  139.0570  167.9909 H       1    T1        0.1734
     11 C1*       140.6306  143.0198  165.8709 C.3     1    T1        0.2106
     12 C2*       139.7681  144.0640  165.2263 C.3     1    T1        0.0858
     13 C3*       140.5202  144.6302  164.0585 C.3     1    T1        0.1445
     14 O3*       140.0308  145.7025  163.1307 O.3     1    T1       -0.3817
     15 C4*       141.8476  143.9359  163.9813 C.3     1    T1        0.1731
     16 O4*       141.9158  142.9406  165.1014 O.3     1    T1       -0.3327
     17 H3*       140.7089  145.8854  162.4617 H       1    T1        0.2104
     18 C5*       142.9186  144.1919  162.9629 C.3     1    T1        0.1692
     19 O5*       142.6507  145.1099  161.8073 O.3     1    T1       -0.3794
     20 H5*       141.9722  144.7193  161.2346 H       1    T1        0.2105
@<TRIPOS>BOND
     1     1     2    1
     2     2     3   ar
     3     3     4   ar
     4    11     4    1
     5    11    12    1
     6    12    13    1
     7    13    14    1
     8    13    15    1
     9    15    18    1
    10    18    19    1
    11    15    16    1
    12     4     5   ar
    13     5     6    2
    14     5     7   ar
    15     7     8   ar
    16     8     9    2
    17     8     2   ar
    18    16    11    1
    19    14    17    1
    20    19    20    1
    21     7    10    1
