@<TRIPOS>MOLECULE
*****
 30 33 0 0 0
SMALL
GASTEIGER

@<TRIPOS>ATOM
      1 C         141.5055  141.0865  165.3778 C.ar    1  UNL1        0.0478
      2 C         142.5927  141.2251  166.4019 C.ar    1  UNL1        0.0140
      3 C         143.4760  142.4375  166.3987 C.ar    1  UNL1        0.0012
      4 C         143.2719  143.5114  165.3715 C.ar    1  UNL1        0.0001
      5 C         142.1846  143.3728  164.3474 C.ar    1  UNL1        0.0012
      6 C         141.3015  142.1604  164.3506 C.ar    1  UNL1        0.0133
      7 N         137.3001  138.5871  167.1294 N.3     1  UNL1       -0.3208
      8 C         138.5196  138.6244  166.2568 C.3     1  UNL1        0.0709
      9 C         138.8559  137.4493  165.3873 C.3     1  UNL1        0.0190
     10 C         140.0753  137.4866  164.5147 C.3     1  UNL1        0.0228
     11 C         140.9586  138.6990  164.5115 C.3     1  UNL1        0.0909
     12 N         140.6223  139.8741  165.3810 N.pl3   1  UNL1       -0.3061
     13 C         139.4028  139.8368  166.2536 C.3     1  UNL1        0.1062
     14 H         136.8213  137.6950  167.0066 H       1  UNL1        0.1189
     15 H         136.6728  139.3483  166.8697 H       1  UNL1        0.1189
     16 C         142.7968  140.1512  167.4291 C.2     1  UNL1        0.0124
     17 C         142.2997  140.3496  168.8304 C.2     1  UNL1        0.0873
     18 S         141.5848  141.5620  169.3490 S.3     1  UNL1       -0.0254
     19 C         141.2736  141.3322  170.7982 C.2     1  UNL1        0.2832
     20 O         140.5644  142.2888  171.7102 O.2     1  UNL1       -0.2622
     21 N         141.7962  139.9776  171.1754 N.am    1  UNL1       -0.2425
     22 C         142.4304  139.3704  169.9591 C.2     1  UNL1        0.2583
     23 O         143.0810  138.0208  169.8848 O.2     1  UNL1       -0.2692
     24 H         141.7339  139.5604  172.0649 H       1  UNL1        0.1587
     25 C         140.2142  142.0218  163.3265 C.ar    1  UNL1        0.0012
     26 C         140.5131  141.3994  161.9948 C.ar    1  UNL1        0.0000
     27 C         139.4259  141.2608  160.9708 C.ar    1  UNL1        0.0000
     28 C         138.0398  141.7445  161.2784 C.ar    1  UNL1        0.0000
     29 C         137.7409  142.3668  162.6101 C.ar    1  UNL1        0.0000
     30 C         138.8281  142.5055  163.6341 C.ar    1  UNL1        0.0000
@<TRIPOS>BOND
     1     8     7    1
     2     8     9    1
     3     9    10    1
     4    10    11    1
     5    11    12    1
     6    12     1    1
     7     1     2   ar
     8     2    16    1
     9    16    17    2
    10    17    18    1
    11    18    19    1
    12    19    20    2
    13    19    21   am
    14    21    22   am
    15    22    23    2
    16     2     3   ar
    17     3     4   ar
    18     4     5   ar
    19     5     6   ar
    20     6    25    1
    21    25    26   ar
    22    26    27   ar
    23    27    28   ar
    24    28    29   ar
    25    29    30   ar
    26    12    13    1
    27    13     8    1
    28     6     1   ar
    29    30    25   ar
    30    22    17    1
    31     7    14    1
    32     7    15    1
    33    21    24    1
@<TRIPOS>MOLECULE
*****
 30 33 0 0 0
SMALL
GASTEIGER

@<TRIPOS>ATOM
      1 C         141.5456  140.6780  165.2164 C.ar    1  UNL1        0.0478
      2 C         141.5993  139.7381  166.3841 C.ar    1  UNL1        0.0140
      3 C         142.8009  138.8636  166.5882 C.ar    1  UNL1        0.0012
      4 C         143.9486  138.9291  165.6247 C.ar    1  UNL1        0.0001
      5 C         143.8948  139.8691  164.4570 C.ar    1  UNL1        0.0012
      6 C         142.6933  140.7436  164.2528 C.ar    1  UNL1        0.0133
      7 N         136.7956  141.4093  163.2408 N.3     1  UNL1       -0.3208
      8 C         137.9691  141.9182  164.0244 C.3     1  UNL1        0.0709
      9 C         137.9411  143.3014  164.6038 C.3     1  UNL1        0.0190
     10 C         139.1146  143.8103  165.3874 C.3     1  UNL1        0.0228
     11 C         140.3160  142.9358  165.5916 C.3     1  UNL1        0.0909
     12 N         140.3440  141.5526  165.0122 N.pl3   1  UNL1       -0.3061
     13 C         139.1706  141.0437  164.2286 C.3     1  UNL1        0.1062
     14 H         136.0745  142.1297  163.2021 H       1  UNL1        0.1189
     15 H         136.4199  140.5762  163.6936 H       1  UNL1        0.1189
     16 C         140.4516  139.6725  167.3476 C.2     1  UNL1        0.0124
     17 C         140.5126  140.4324  168.6395 C.2     1  UNL1        0.0873
     18 S         141.6491  141.2952  169.1021 S.3     1  UNL1       -0.0254
     19 C         141.2867  141.8589  170.4441 C.2     1  UNL1        0.2832
     20 O         142.1356  142.7759  171.2736 O.2     1  UNL1       -0.2622
     21 N         139.9261  141.3445  170.8109 N.am    1  UNL1       -0.2425
     22 C         139.4477  140.4629  169.6955 C.2     1  UNL1        0.2583
     23 O         138.1350  139.7389  169.6451 O.2     1  UNL1       -0.2692
     24 H         139.4336  141.5495  171.6383 H       1  UNL1        0.1587
     25 C         142.6395  141.6836  163.0851 C.ar    1  UNL1        0.0012
     26 C         142.0539  141.2276  161.7816 C.ar    1  UNL1        0.0000
     27 C         142.0001  142.1676  160.6139 C.ar    1  UNL1        0.0000
     28 C         142.5319  143.5635  160.7497 C.ar    1  UNL1        0.0000
     29 C         143.1175  144.0195  162.0533 C.ar    1  UNL1        0.0000
     30 C         143.1713  143.0796  163.2210 C.ar    1  UNL1        0.0000
@<TRIPOS>BOND
     1     8     7    1
     2     8     9    1
     3     9    10    1
     4    10    11    1
     5    11    12    1
     6    12     1    1
     7     1     2   ar
     8     2    16    1
     9    16    17    2
    10    17    18    1
    11    18    19    1
    12    19    20    2
    13    19    21   am
    14    21    22   am
    15    22    23    2
    16     2     3   ar
    17     3     4   ar
    18     4     5   ar
    19     5     6   ar
    20     6    25    1
    21    25    26   ar
    22    26    27   ar
    23    27    28   ar
    24    28    29   ar
    25    29    30   ar
    26    12    13    1
    27    13     8    1
    28     6     1   ar
    29    30    25   ar
    30    22    17    1
    31     7    14    1
    32     7    15    1
    33    21    24    1
@<TRIPOS>MOLECULE
*****
 30 33 0 0 0
SMALL
GASTEIGER

@<TRIPOS>ATOM
      1 C         141.6863  141.0202  165.4198 C.ar    1  UNL1        0.0478
      2 C         142.1751  140.8472  166.8273 C.ar    1  UNL1        0.0140
      3 C         142.9456  139.6178  167.2079 C.ar    1  UNL1        0.0012
      4 C         143.2274  138.5614  166.1810 C.ar    1  UNL1        0.0001
      5 C         142.7385  138.7344  164.7734 C.ar    1  UNL1        0.0012
      6 C         141.9681  139.9638  164.3928 C.ar    1  UNL1        0.0133
      7 N         141.5795  145.8557  163.5206 N.3     1  UNL1       -0.3208
      8 C         140.8624  144.6674  164.0896 C.3     1  UNL1        0.0709
      9 C         139.3749  144.7085  164.2779 C.3     1  UNL1        0.0190
     10 C         138.6578  143.5202  164.8469 C.3     1  UNL1        0.0228
     11 C         139.4283  142.2908  165.2275 C.3     1  UNL1        0.0909
     12 N         140.9158  142.2497  165.0392 N.pl3   1  UNL1       -0.3061
     13 C         141.6329  143.4380  164.4702 C.3     1  UNL1        0.1062
     14 H         140.9062  146.5953  163.3205 H       1  UNL1        0.1189
     15 H         142.0543  145.5859  162.6591 H       1  UNL1        0.1189
     16 C         141.8934  141.9037  167.8543 C.2     1  UNL1        0.0124
     17 C         140.7944  141.7025  168.8552 C.2     1  UNL1        0.0873
     18 S         139.8982  140.5035  168.9516 S.3     1  UNL1       -0.0254
     19 C         138.9486  140.7250  170.0914 C.2     1  UNL1        0.2832
     20 O         137.8778  139.7771  170.5437 O.2     1  UNL1       -0.2622
     21 N         139.2578  142.0610  170.6994 N.am    1  UNL1       -0.2425
     22 C         140.3986  142.6652  169.9353 C.2     1  UNL1        0.2583
     23 O         141.0323  143.9979  170.2042 O.2     1  UNL1       -0.2692
     24 H         138.7935  142.4696  171.4654 H       1  UNL1        0.1587
     25 C         141.4792  140.1369  162.9853 C.ar    1  UNL1        0.0012
     26 C         142.3621  140.7825  161.9588 C.ar    1  UNL1        0.0000
     27 C         141.8734  140.9555  160.5513 C.ar    1  UNL1        0.0000
     28 C         140.5017  140.4830  160.1703 C.ar    1  UNL1        0.0000
     29 C         139.6188  139.8374  161.1967 C.ar    1  UNL1        0.0000
     30 C         140.1076  139.6643  162.6043 C.ar    1  UNL1        0.0000
@<TRIPOS>BOND
     1     8     7    1
     2     8     9    1
     3     9    10    1
     4    10    11    1
     5    11    12    1
     6    12     1    1
     7     1     2   ar
     8     2    16    1
     9    16    17    2
    10    17    18    1
    11    18    19    1
    12    19    20    2
    13    19    21   am
    14    21    22   am
    15    22    23    2
    16     2     3   ar
    17     3     4   ar
    18     4     5   ar
    19     5     6   ar
    20     6    25    1
    21    25    26   ar
    22    26    27   ar
    23    27    28   ar
    24    28    29   ar
    25    29    30   ar
    26    12    13    1
    27    13     8    1
    28     6     1   ar
    29    30    25   ar
    30    22    17    1
    31     7    14    1
    32     7    15    1
    33    21    24    1
@<TRIPOS>MOLECULE
*****
 30 33 0 0 0
SMALL
GASTEIGER

@<TRIPOS>ATOM
      1 C         141.5087  140.4998  165.3124 C.ar    1  UNL1        0.0478
      2 C         142.3363  140.0029  164.1644 C.ar    1  UNL1        0.0140
      3 C         143.4701  139.0527  164.4131 C.ar    1  UNL1        0.0012
      4 C         143.7762  138.5995  165.8099 C.ar    1  UNL1        0.0001
      5 C         142.9484  139.0965  166.9579 C.ar    1  UNL1        0.0012
      6 C         141.8147  140.0466  166.7092 C.ar    1  UNL1        0.0133
      7 N         136.7516  141.4388  163.4446 N.3     1  UNL1       -0.3208
      8 C         137.9964  141.9194  164.1298 C.3     1  UNL1        0.0709
      9 C         138.1074  143.3502  164.5663 C.3     1  UNL1        0.0190
     10 C         139.3522  143.8308  165.2515 C.3     1  UNL1        0.0228
     11 C         140.4859  142.8807  165.5002 C.3     1  UNL1        0.0909
     12 N         140.3749  141.4500  165.0637 N.pl3   1  UNL1       -0.3061
     13 C         139.1301  140.9693  164.3785 C.3     1  UNL1        0.1062
     14 H         136.0909  142.2111  163.3588 H       1  UNL1        0.1189
     15 H         136.3294  140.6895  163.9929 H       1  UNL1        0.1189
     16 C         142.0303  140.4561  162.7677 C.2     1  UNL1        0.0124
     17 C         142.5188  141.7909  162.2883 C.2     1  UNL1        0.0873
     18 S         143.3201  142.7755  163.0874 S.3     1  UNL1       -0.0254
     19 C         143.5883  143.9685  162.2186 C.2     1  UNL1        0.2832
     20 O         144.3570  145.1936  162.6161 O.2     1  UNL1       -0.2622
     21 N         142.9529  143.7212  160.8825 N.am    1  UNL1       -0.2425
     22 C         142.2919  142.3753  160.9256 C.2     1  UNL1        0.2583
     23 O         141.5366  141.7276  159.8030 O.2     1  UNL1       -0.2692
     24 H         142.9671  144.3345  160.1125 H       1  UNL1        0.1587
     25 C         140.9870  140.5436  167.8573 C.ar    1  UNL1        0.0012
     26 C         141.4208  141.7573  168.6246 C.ar    1  UNL1        0.0000
     27 C         140.5932  142.2542  169.7726 C.ar    1  UNL1        0.0000
     28 C         139.3317  141.5376  170.1532 C.ar    1  UNL1        0.0000
     29 C         138.8978  140.3239  169.3859 C.ar    1  UNL1        0.0000
     30 C         139.7255  139.8269  168.2379 C.ar    1  UNL1        0.0000
@<TRIPOS>BOND
     1     8     7    1
     2     8     9    1
     3     9    10    1
     4    10    11    1
     5    11    12    1
     6    12     1    1
     7     1     2   ar
     8     2    16    1
     9    16    17    2
    10    17    18    1
    11    18    19    1
    12    19    20    2
    13    19    21   am
    14    21    22   am
    15    22    23    2
    16     2     3   ar
    17     3     4   ar
    18     4     5   ar
    19     5     6   ar
    20     6    25    1
    21    25    26   ar
    22    26    27   ar
    23    27    28   ar
    24    28    29   ar
    25    29    30   ar
    26    12    13    1
    27    13     8    1
    28     6     1   ar
    29    30    25   ar
    30    22    17    1
    31     7    14    1
    32     7    15    1
    33    21    24    1
@<TRIPOS>MOLECULE
*****
 30 33 0 0 0
SMALL
GASTEIGER

@<TRIPOS>ATOM
      1 C         140.3183  140.3109  165.8502 C.ar    1  UNL1        0.0478
      2 C         139.6583  140.4671  167.1880 C.ar    1  UNL1        0.0140
      3 C         138.5697  139.5219  167.6024 C.ar    1  UNL1        0.0012
      4 C         138.1412  138.4203  166.6787 C.ar    1  UNL1        0.0001
      5 C         138.8013  138.2641  165.3408 C.ar    1  UNL1        0.0012
      6 C         139.8898  139.2093  164.9266 C.ar    1  UNL1        0.0133
      7 N         141.7974  144.8330  163.7616 N.3     1  UNL1       -0.3208
      8 C         142.1463  143.5172  164.3915 C.3     1  UNL1        0.0709
      9 C         143.5837  143.1466  164.6072 C.3     1  UNL1        0.0190
     10 C         143.9327  141.8308  165.2371 C.3     1  UNL1        0.0228
     11 C         142.8442  140.8856  165.6515 C.3     1  UNL1        0.0909
     12 N         141.4068  141.2561  165.4358 N.pl3   1  UNL1       -0.3061
     13 C         141.0579  142.5720  164.8059 C.3     1  UNL1        0.1062
     14 H         142.6533  145.3440  163.5453 H       1  UNL1        0.1189
     15 H         141.2294  145.3798  164.4087 H       1  UNL1        0.1189
     16 C         140.0868  141.5687  168.1116 C.2     1  UNL1        0.0124
     17 C         141.1535  141.3164  169.1356 C.2     1  UNL1        0.0873
     18 S         141.8785  140.0214  169.3530 S.3     1  UNL1       -0.0254
     19 C         142.8555  140.2195  170.4737 C.2     1  UNL1        0.2832
     20 O         143.7896  139.1823  171.0227 O.2     1  UNL1       -0.2622
     21 N         142.7345  141.6371  170.9490 N.am    1  UNL1       -0.2425
     22 C         141.6825  142.3150  170.1220 C.2     1  UNL1        0.2583
     23 O         141.2377  143.7411  170.2576 O.2     1  UNL1       -0.2692
     24 H         143.2542  142.0500  171.6761 H       1  UNL1        0.1587
     25 C         140.5498  139.0531  163.5886 C.ar    1  UNL1        0.0012
     26 C         140.0460  139.8300  162.4085 C.ar    1  UNL1        0.0000
     27 C         140.7060  139.6738  161.0706 C.ar    1  UNL1        0.0000
     28 C         141.8698  138.7407  160.9129 C.ar    1  UNL1        0.0000
     29 C         142.3736  137.9638  162.0930 C.ar    1  UNL1        0.0000
     30 C         141.7136  138.1200  163.4309 C.ar    1  UNL1        0.0000
@<TRIPOS>BOND
     1     8     7    1
     2     8     9    1
     3     9    10    1
     4    10    11    1
     5    11    12    1
     6    12     1    1
     7     1     2   ar
     8     2    16    1
     9    16    17    2
    10    17    18    1
    11    18    19    1
    12    19    20    2
    13    19    21   am
    14    21    22   am
    15    22    23    2
    16     2     3   ar
    17     3     4   ar
    18     4     5   ar
    19     5     6   ar
    20     6    25    1
    21    25    26   ar
    22    26    27   ar
    23    27    28   ar
    24    28    29   ar
    25    29    30   ar
    26    12    13    1
    27    13     8    1
    28     6     1   ar
    29    30    25   ar
    30    22    17    1
    31     7    14    1
    32     7    15    1
    33    21    24    1
@<TRIPOS>MOLECULE
*****
 30 33 0 0 0
SMALL
GASTEIGER

@<TRIPOS>ATOM
      1 C         140.3899  140.7974  165.7640 C.ar    1  UNL1        0.0478
      2 C         140.4988  140.4271  167.2135 C.ar    1  UNL1        0.0140
      3 C         139.4208  139.6100  167.8619 C.ar    1  UNL1        0.0012
      4 C         138.2340  139.1632  167.0608 C.ar    1  UNL1        0.0001
      5 C         138.1251  139.5335  165.6113 C.ar    1  UNL1        0.0012
      6 C         139.2030  140.3506  164.9629 C.ar    1  UNL1        0.0133
      7 N         144.9719  141.0823  163.3302 N.3     1  UNL1       -0.3208
      8 C         143.7588  141.7569  163.8987 C.3     1  UNL1        0.0709
      9 C         143.6236  143.2486  163.8188 C.3     1  UNL1        0.0190
     10 C         142.4105  143.9233  164.3873 C.3     1  UNL1        0.0228
     11 C         141.3326  143.1063  165.0357 C.3     1  UNL1        0.0909
     12 N         141.4678  141.6145  165.1156 N.pl3   1  UNL1       -0.3061
     13 C         142.6809  140.9399  164.5471 C.3     1  UNL1        0.1062
     14 H         145.5959  141.7839  162.9317 H       1  UNL1        0.1189
     15 H         144.6869  140.4277  162.6016 H       1  UNL1        0.1189
     16 C         141.6856  140.8740  168.0146 C.2     1  UNL1        0.0124
     17 C         141.5860  142.0889  168.8887 C.2     1  UNL1        0.0873
     18 S         140.3724  142.9531  169.0624 S.3     1  UNL1       -0.0254
     19 C         140.7189  144.0512  170.0237 C.2     1  UNL1        0.2832
     20 O         139.7991  145.1431  170.4837 O.2     1  UNL1       -0.2622
     21 N         142.1469  143.8658  170.4441 N.am    1  UNL1       -0.2425
     22 C         142.6828  142.6529  169.7426 C.2     1  UNL1        0.2583
     23 O         144.0716  142.1011  169.8723 O.2     1  UNL1       -0.2692
     24 H         142.6449  144.4393  171.0704 H       1  UNL1        0.1587
     25 C         139.0942  140.7209  163.5134 C.ar    1  UNL1        0.0012
     26 C         138.2935  141.9214  163.1041 C.ar    1  UNL1        0.0000
     27 C         138.1846  142.2917  161.6546 C.ar    1  UNL1        0.0000
     28 C         138.8764  141.4615  160.6145 C.ar    1  UNL1        0.0000
     29 C         139.6771  140.2609  161.0237 C.ar    1  UNL1        0.0000
     30 C         139.7860  139.8906  162.4732 C.ar    1  UNL1        0.0000
@<TRIPOS>BOND
     1     8     7    1
     2     8     9    1
     3     9    10    1
     4    10    11    1
     5    11    12    1
     6    12     1    1
     7     1     2   ar
     8     2    16    1
     9    16    17    2
    10    17    18    1
    11    18    19    1
    12    19    20    2
    13    19    21   am
    14    21    22   am
    15    22    23    2
    16     2     3   ar
    17     3     4   ar
    18     4     5   ar
    19     5     6   ar
    20     6    25    1
    21    25    26   ar
    22    26    27   ar
    23    27    28   ar
    24    28    29   ar
    25    29    30   ar
    26    12    13    1
    27    13     8    1
    28     6     1   ar
    29    30    25   ar
    30    22    17    1
    31     7    14    1
    32     7    15    1
    33    21    24    1
@<TRIPOS>MOLECULE
*****
 30 33 0 0 0
SMALL
GASTEIGER

@<TRIPOS>ATOM
      1 C         140.4186  139.9895  166.0332 C.ar    1  UNL1        0.0478
      2 C         139.5072  139.1812  165.1580 C.ar    1  UNL1        0.0140
      3 C         138.2503  138.5916  165.7259 C.ar    1  UNL1        0.0012
      4 C         137.9047  138.8104  167.1691 C.ar    1  UNL1        0.0001
      5 C         138.8162  139.6187  168.0443 C.ar    1  UNL1        0.0012
      6 C         140.0730  140.2083  167.4764 C.ar    1  UNL1        0.0133
      7 N         145.2905  139.4051  164.3235 N.3     1  UNL1       -0.3208
      8 C         144.1115  140.2869  164.6104 C.3     1  UNL1        0.0709
      9 C         144.1894  141.7582  164.3294 C.3     1  UNL1        0.0190
     10 C         143.0103  142.6400  164.6164 C.3     1  UNL1        0.0228
     11 C         141.7534  142.0505  165.1843 C.3     1  UNL1        0.0909
     12 N         141.6755  140.5792  165.4653 N.pl3   1  UNL1       -0.3061
     13 C         142.8546  139.6973  165.1783 C.3     1  UNL1        0.1062
     14 H         146.0518  139.9680  163.9443 H       1  UNL1        0.1189
     15 H         145.0243  138.6917  163.6448 H       1  UNL1        0.1189
     16 C         139.8528  138.9625  163.7148 C.2     1  UNL1        0.0124
     17 C         139.4111  139.9539  162.6793 C.2     1  UNL1        0.0873
     18 S         138.6225  141.2039  162.9351 S.3     1  UNL1       -0.0254
     19 C         138.4046  141.8918  161.6201 C.2     1  UNL1        0.2832
     20 O         137.6630  143.1786  161.4105 O.2     1  UNL1       -0.2622
     21 N         139.0586  141.0669  160.5515 N.am    1  UNL1       -0.2425
     22 C         139.6807  139.8691  161.2061 C.2     1  UNL1        0.2583
     23 O         140.4391  138.7783  160.5098 O.2     1  UNL1       -0.2692
     24 H         139.0764  141.2751  159.5894 H       1  UNL1        0.1587
     25 C         140.9845  141.0166  168.3516 C.ar    1  UNL1        0.0012
     26 C         140.5913  142.4038  168.7652 C.ar    1  UNL1        0.0000
     27 C         141.5026  143.2121  169.6404 C.ar    1  UNL1        0.0000
     28 C         142.8072  142.6333  170.1020 C.ar    1  UNL1        0.0000
     29 C         143.2003  141.2461  169.6884 C.ar    1  UNL1        0.0000
     30 C         142.2890  140.4377  168.8132 C.ar    1  UNL1        0.0000
@<TRIPOS>BOND
     1     8     7    1
     2     8     9    1
     3     9    10    1
     4    10    11    1
     5    11    12    1
     6    12     1    1
     7     1     2   ar
     8     2    16    1
     9    16    17    2
    10    17    18    1
    11    18    19    1
    12    19    20    2
    13    19    21   am
    14    21    22   am
    15    22    23    2
    16     2     3   ar
    17     3     4   ar
    18     4     5   ar
    19     5     6   ar
    20     6    25    1
    21    25    26   ar
    22    26    27   ar
    23    27    28   ar
    24    28    29   ar
    25    29    30   ar
    26    12    13    1
    27    13     8    1
    28     6     1   ar
    29    30    25   ar
    30    22    17    1
    31     7    14    1
    32     7    15    1
    33    21    24    1
@<TRIPOS>MOLECULE
*****
 30 33 0 0 0
SMALL
GASTEIGER

@<TRIPOS>ATOM
      1 C         142.2396  141.1467  165.0581 C.ar    1  UNL1        0.0478
      2 C         142.3304  141.9073  166.3478 C.ar    1  UNL1        0.0140
      3 C         143.4807  142.8392  166.5896 C.ar    1  UNL1        0.0012
      4 C         144.5402  143.0104  165.5417 C.ar    1  UNL1        0.0001
      5 C         144.4494  142.2498  164.2519 C.ar    1  UNL1        0.0012
      6 C         143.2991  141.3180  164.0102 C.ar    1  UNL1        0.0133
      7 N         137.3677  140.3360  163.4435 N.3     1  UNL1       -0.3208
      8 C         138.6534  139.8095  164.0090 C.3     1  UNL1        0.0709
      9 C         138.7887  138.3511  164.3327 C.3     1  UNL1        0.0190
     10 C         140.0744  137.8246  164.8983 C.3     1  UNL1        0.0228
     11 C         141.2247  138.7564  165.1401 C.3     1  UNL1        0.0909
     12 N         141.0893  140.2148  164.8163 N.pl3   1  UNL1       -0.3061
     13 C         139.8036  140.7413  164.2508 C.3     1  UNL1        0.1062
     14 H         136.7006  139.5706  163.3456 H       1  UNL1        0.1189
     15 H         137.5437  140.7525  162.5292 H       1  UNL1        0.1189
     16 C         141.2709  141.7360  167.3957 C.2     1  UNL1        0.0124
     17 C         141.4387  140.7026  168.4700 C.2     1  UNL1        0.0873
     18 S         142.6055  139.7727  168.6244 S.3     1  UNL1       -0.0254
     19 C         142.3571  138.9132  169.8283 C.2     1  UNL1        0.2832
     20 O         143.2688  137.8429  170.3508 O.2     1  UNL1       -0.2622
     21 N         141.0367  139.3120  170.4181 N.am    1  UNL1       -0.2425
     22 C         140.4691  140.4180  169.5786 C.2     1  UNL1        0.2583
     23 O         139.1616  141.1166  169.8075 O.2     1  UNL1       -0.2692
     24 H         140.6165  138.9172  171.2161 H       1  UNL1        0.1587
     25 C         143.2083  140.5573  162.7205 C.ar    1  UNL1        0.0012
     26 C         143.9171  139.2436  162.5731 C.ar    1  UNL1        0.0000
     27 C         143.8263  138.4830  161.2835 C.ar    1  UNL1        0.0000
     28 C         143.0267  139.0361  160.1413 C.ar    1  UNL1        0.0000
     29 C         142.3180  140.3498  160.2887 C.ar    1  UNL1        0.0000
     30 C         142.4088  141.1105  161.5783 C.ar    1  UNL1        0.0000
@<TRIPOS>BOND
     1     8     7    1
     2     8     9    1
     3     9    10    1
     4    10    11    1
     5    11    12    1
     6    12     1    1
     7     1     2   ar
     8     2    16    1
     9    16    17    2
    10    17    18    1
    11    18    19    1
    12    19    20    2
    13    19    21   am
    14    21    22   am
    15    22    23    2
    16     2     3   ar
    17     3     4   ar
    18     4     5   ar
    19     5     6   ar
    20     6    25    1
    21    25    26   ar
    22    26    27   ar
    23    27    28   ar
    24    28    29   ar
    25    29    30   ar
    26    12    13    1
    27    13     8    1
    28     6     1   ar
    29    30    25   ar
    30    22    17    1
    31     7    14    1
    32     7    15    1
    33    21    24    1
@<TRIPOS>MOLECULE
*****
 30 33 0 0 0
SMALL
GASTEIGER

@<TRIPOS>ATOM
      1 C         142.1157  141.8568  164.5763 C.ar    1  UNL1        0.0478
      2 C         142.7831  142.5522  163.4269 C.ar    1  UNL1        0.0140
      3 C         143.9551  143.4550  163.6748 C.ar    1  UNL1        0.0012
      4 C         144.4597  143.6624  165.0721 C.ar    1  UNL1        0.0001
      5 C         143.7923  142.9669  166.2215 C.ar    1  UNL1        0.0012
      6 C         142.6203  142.0642  165.9736 C.ar    1  UNL1        0.0133
      7 N         137.0419  141.2201  163.6539 N.3     1  UNL1       -0.3208
      8 C         138.4068  140.6357  163.8672 C.3     1  UNL1        0.0709
      9 C         138.5997  139.1486  163.8326 C.3     1  UNL1        0.0190
     10 C         139.9646  138.5642  164.0459 C.3     1  UNL1        0.0228
     11 C         141.1366  139.4669  164.2938 C.3     1  UNL1        0.0909
     12 N         140.9437  140.9540  164.3284 N.pl3   1  UNL1       -0.3061
     13 C         139.5788  141.5384  164.1151 C.3     1  UNL1        0.1062
     14 H         136.3701  140.4680  163.5010 H       1  UNL1        0.1189
     15 H         137.0579  141.8326  162.8384 H       1  UNL1        0.1189
     16 C         142.2785  142.3448  162.0297 C.2     1  UNL1        0.0124
     17 C         141.3526  143.3492  161.4098 C.2     1  UNL1        0.0873
     18 S         140.8473  144.6023  162.0613 S.3     1  UNL1       -0.0254
     19 C         139.9519  145.3043  161.0838 C.2     1  UNL1        0.2832
     20 O         139.2312  146.5982  161.3204 O.2     1  UNL1       -0.2622
     21 N         139.9038  144.4850  159.8282 N.am    1  UNL1       -0.2425
     22 C         140.7695  143.2766  160.0297 C.2     1  UNL1        0.2583
     23 O         141.0098  142.1871  159.0271 O.2     1  UNL1       -0.2692
     24 H         139.3936  144.7022  159.0147 H       1  UNL1        0.1587
     25 C         141.9529  141.3687  167.1229 C.ar    1  UNL1        0.0012
     26 C         140.6602  141.8970  167.6707 C.ar    1  UNL1        0.0000
     27 C         139.9928  141.2016  168.8200 C.ar    1  UNL1        0.0000
     28 C         140.6180  139.9780  169.4215 C.ar    1  UNL1        0.0000
     29 C         141.9106  139.4498  168.8737 C.ar    1  UNL1        0.0000
     30 C         142.5781  140.1451  167.7244 C.ar    1  UNL1        0.0000
@<TRIPOS>BOND
     1     8     7    1
     2     8     9    1
     3     9    10    1
     4    10    11    1
     5    11    12    1
     6    12     1    1
     7     1     2   ar
     8     2    16    1
     9    16    17    2
    10    17    18    1
    11    18    19    1
    12    19    20    2
    13    19    21   am
    14    21    22   am
    15    22    23    2
    16     2     3   ar
    17     3     4   ar
    18     4     5   ar
    19     5     6   ar
    20     6    25    1
    21    25    26   ar
    22    26    27   ar
    23    27    28   ar
    24    28    29   ar
    25    29    30   ar
    26    12    13    1
    27    13     8    1
    28     6     1   ar
    29    30    25   ar
    30    22    17    1
    31     7    14    1
    32     7    15    1
    33    21    24    1
