@<TRIPOS>MOLECULE
*****
 22 25 0 0 0
SMALL
GASTEIGER

@<TRIPOS>ATOM
      1 N         141.1090  138.5281  162.0725 N.pl3   1  UNL1       -0.2881
      2 C         140.2953  138.8593  160.8568 C.3     1  UNL1        0.0940
      3 C         140.8762  138.6599  159.4884 C.3     1  UNL1        0.0375
      4 C         142.2709  138.1293  159.3356 C.3     1  UNL1        0.0609
      5 C         143.0846  137.7981  160.5514 C.3     1  UNL1        0.0375
      6 C         142.5037  137.9974  161.9198 C.3     1  UNL1        0.0940
      7 CL        139.2674  140.4574  169.4556 Cl      1  UNL1       -0.0613
      8 C         139.1992  139.8321  168.0939 C.ar    1  UNL1        0.1390
      9 C         140.2736  140.1121  167.0853 C.ar    1  UNL1        0.0389
     10 C         140.2054  139.4868  165.7236 C.ar    1  UNL1        0.0536
     11 S         141.1110  139.5770  164.5312 S.2     1  UNL1       -0.0514
     12 C         140.5281  138.7274  163.4411 C.ar    1  UNL1        0.1631
     13 N         139.2622  138.1122  163.9598 N.ar    1  UNL1       -0.2225
     14 C         139.0627  138.5815  165.3704 C.ar    1  UNL1        0.1084
     15 C         137.9884  138.3015  166.3790 C.ar    1  UNL1        0.1194
     16 N         138.0566  138.9268  167.7407 N.ar    1  UNL1       -0.2308
     17 N         142.8518  137.9300  157.9671 N.3     1  UNL1       -0.2738
     18 C         142.9738  136.5474  157.3982 C.3     1  UNL1        0.0720
     19 C         143.5547  136.3481  156.0297 C.3     1  UNL1        0.0174
     20 C         144.0136  137.5313  155.2301 C.3     1  UNL1        0.0029
     21 C         143.8916  138.9139  155.7990 C.3     1  UNL1        0.0174
     22 C         143.3107  139.1132  157.1675 C.3     1  UNL1        0.0720
@<TRIPOS>BOND
     1     7     8    1
     2     8     9   ar
     3     9    10   ar
     4    10    11   ar
     5    11    12   ar
     6    12     1    1
     7     1     2    1
     8     2     3    1
     9     3     4    1
    10     4    17    1
    11    17    18    1
    12    18    19    1
    13    19    20    1
    14    20    21    1
    15    21    22    1
    16     4     5    1
    17     5     6    1
    18    12    13   ar
    19    13    14   ar
    20    14    15   ar
    21    15    16   ar
    22    16     8   ar
    23    14    10   ar
    24     6     1    1
    25    22    17    1
@<TRIPOS>MOLECULE
*****
 22 25 0 0 0
SMALL
GASTEIGER

@<TRIPOS>ATOM
      1 N         142.0885  143.0562  163.2829 N.pl3   1  UNL1       -0.2881
      2 C         141.0166  143.2565  164.3128 C.3     1  UNL1        0.0940
      3 C         141.2018  142.7215  165.7018 C.3     1  UNL1        0.0375
      4 C         142.4590  141.9862  166.0609 C.3     1  UNL1        0.0609
      5 C         143.5309  141.7859  165.0310 C.3     1  UNL1        0.0375
      6 C         143.3457  142.3209  163.6420 C.3     1  UNL1        0.0940
      7 CL        139.9415  146.5842  156.6070 Cl      1  UNL1       -0.0613
      8 C         140.6998  145.7309  157.5801 C.ar    1  UNL1        0.1390
      9 C         140.2623  145.6576  159.0129 C.ar    1  UNL1        0.0389
     10 C         141.0205  144.8043  159.9860 C.ar    1  UNL1        0.0536
     11 S         140.8270  144.5366  161.4492 S.2     1  UNL1       -0.0514
     12 C         141.9034  143.5912  161.8937 C.ar    1  UNL1        0.1631
     13 N         142.7620  143.2746  160.7053 N.ar    1  UNL1       -0.2225
     14 C         142.2164  144.0243  159.5262 C.ar    1  UNL1        0.1084
     15 C         142.6540  144.0976  158.0934 C.ar    1  UNL1        0.1194
     16 N         141.8957  144.9509  157.1203 N.ar    1  UNL1       -0.2308
     17 N         142.6441  141.4513  167.4500 N.3     1  UNL1       -0.2738
     18 C         143.1929  142.3379  168.5283 C.3     1  UNL1        0.0720
     19 C         143.3781  141.8029  169.9173 C.3     1  UNL1        0.0174
     20 C         143.0144  140.3813  170.2281 C.3     1  UNL1        0.0029
     21 C         142.4656  139.4946  169.1499 C.3     1  UNL1        0.0174
     22 C         142.2805  140.0296  167.7609 C.3     1  UNL1        0.0720
@<TRIPOS>BOND
     1     7     8    1
     2     8     9   ar
     3     9    10   ar
     4    10    11   ar
     5    11    12   ar
     6    12     1    1
     7     1     2    1
     8     2     3    1
     9     3     4    1
    10     4    17    1
    11    17    18    1
    12    18    19    1
    13    19    20    1
    14    20    21    1
    15    21    22    1
    16     4     5    1
    17     5     6    1
    18    12    13   ar
    19    13    14   ar
    20    14    15   ar
    21    15    16   ar
    22    16     8   ar
    23    14    10   ar
    24     6     1    1
    25    22    17    1
@<TRIPOS>MOLECULE
*****
 22 25 0 0 0
SMALL
GASTEIGER

@<TRIPOS>ATOM
      1 N         140.8883  143.4404  163.2177 N.pl3   1  UNL1       -0.2881
      2 C         139.8351  144.1084  164.0510 C.3     1  UNL1        0.0940
      3 C         139.6349  143.6953  165.4790 C.3     1  UNL1        0.0375
      4 C         140.4879  142.6143  166.0738 C.3     1  UNL1        0.0609
      5 C         141.5411  141.9463  165.2405 C.3     1  UNL1        0.0375
      6 C         141.7413  142.3593  163.8125 C.3     1  UNL1        0.0940
      7 CL        140.7087  146.4464  155.9682 Cl      1  UNL1       -0.0613
      8 C         141.1395  145.6465  157.1618 C.ar    1  UNL1        0.1390
      9 C         140.3618  145.7310  158.4417 C.ar    1  UNL1        0.0389
     10 C         140.7926  144.9311  159.6352 C.ar    1  UNL1        0.0536
     11 S         140.2286  144.8117  161.0201 S.2     1  UNL1       -0.0514
     12 C         141.0886  143.8534  161.7896 C.ar    1  UNL1        0.1631
     13 N         142.1839  143.3806  160.8804 N.ar    1  UNL1       -0.2225
     14 C         142.0010  144.0467  159.5489 C.ar    1  UNL1        0.1084
     15 C         142.7786  143.9622  158.2691 C.ar    1  UNL1        0.1194
     16 N         142.3479  144.7621  157.0755 N.ar    1  UNL1       -0.2308
     17 N         140.2876  142.2012  167.5019 N.3     1  UNL1       -0.2738
     18 C         139.9308  140.7815  167.8290 C.3     1  UNL1        0.0720
     19 C         139.7306  140.3686  169.2570 C.3     1  UNL1        0.0174
     20 C         139.8872  141.3753  170.3579 C.3     1  UNL1        0.0029
     21 C         140.2440  142.7950  170.0308 C.3     1  UNL1        0.0174
     22 C         140.4442  143.2080  168.6027 C.3     1  UNL1        0.0720
@<TRIPOS>BOND
     1     7     8    1
     2     8     9   ar
     3     9    10   ar
     4    10    11   ar
     5    11    12   ar
     6    12     1    1
     7     1     2    1
     8     2     3    1
     9     3     4    1
    10     4    17    1
    11    17    18    1
    12    18    19    1
    13    19    20    1
    14    20    21    1
    15    21    22    1
    16     4     5    1
    17     5     6    1
    18    12    13   ar
    19    13    14   ar
    20    14    15   ar
    21    15    16   ar
    22    16     8   ar
    23    14    10   ar
    24     6     1    1
    25    22    17    1
@<TRIPOS>MOLECULE
*****
 22 25 0 0 0
SMALL
GASTEIGER

@<TRIPOS>ATOM
      1 N         140.7260  139.7754  163.3018 N.pl3   1  UNL1       -0.2881
      2 C         141.5526  140.9252  163.7964 C.3     1  UNL1        0.0940
      3 C         141.3717  141.4312  165.1969 C.3     1  UNL1        0.0375
      4 C         140.3643  140.7872  166.1027 C.3     1  UNL1        0.0609
      5 C         139.5378  139.6374  165.6081 C.3     1  UNL1        0.0375
      6 C         139.7187  139.1315  164.2077 C.3     1  UNL1        0.0940
      7 CL        143.0809  136.8293  156.4171 Cl      1  UNL1       -0.0613
      8 C         142.2112  137.4410  157.4752 C.ar    1  UNL1        0.1390
      9 C         142.7677  137.7056  158.8428 C.ar    1  UNL1        0.0389
     10 C         141.8981  138.3173  159.9009 C.ar    1  UNL1        0.0536
     11 S         142.1669  138.6913  161.3285 S.2     1  UNL1       -0.0514
     12 C         140.9069  139.2694  161.9013 C.ar    1  UNL1        0.1631
     13 N         139.8594  139.2527  160.8278 N.ar    1  UNL1       -0.2225
     14 C         140.4720  138.6643  159.5915 C.ar    1  UNL1        0.1084
     15 C         139.9155  138.3996  158.2239 C.ar    1  UNL1        0.1194
     16 N         140.7851  137.7880  157.1658 N.ar    1  UNL1       -0.2308
     17 N         140.1835  141.2932  167.5032 N.3     1  UNL1       -0.2738
     18 C         140.5763  142.6988  167.8494 C.3     1  UNL1        0.0720
     19 C         140.3954  143.2048  169.2499 C.3     1  UNL1        0.0174
     20 C         139.8218  142.3050  170.3041 C.3     1  UNL1        0.0029
     21 C         139.4291  140.8994  169.9580 C.3     1  UNL1        0.0174
     22 C         139.6099  140.3935  168.5575 C.3     1  UNL1        0.0720
@<TRIPOS>BOND
     1     7     8    1
     2     8     9   ar
     3     9    10   ar
     4    10    11   ar
     5    11    12   ar
     6    12     1    1
     7     1     2    1
     8     2     3    1
     9     3     4    1
    10     4    17    1
    11    17    18    1
    12    18    19    1
    13    19    20    1
    14    20    21    1
    15    21    22    1
    16     4     5    1
    17     5     6    1
    18    12    13   ar
    19    13    14   ar
    20    14    15   ar
    21    15    16   ar
    22    16     8   ar
    23    14    10   ar
    24     6     1    1
    25    22    17    1
@<TRIPOS>MOLECULE
*****
 22 25 0 0 0
SMALL
GASTEIGER

@<TRIPOS>ATOM
      1 N         142.2717  139.3631  163.0579 N.pl3   1  UNL1       -0.2881
      2 C         143.2198  138.7878  164.0679 C.3     1  UNL1        0.0940
      3 C         142.9171  138.9046  165.5323 C.3     1  UNL1        0.0375
      4 C         141.6663  139.5967  165.9868 C.3     1  UNL1        0.0609
      5 C         140.7182  140.1720  164.9768 C.3     1  UNL1        0.0375
      6 C         141.0209  140.0552  163.5124 C.3     1  UNL1        0.0940
      7 CL        143.1024  137.4504  155.4898 Cl      1  UNL1       -0.0613
      8 C         143.2023  138.2079  156.7806 C.ar    1  UNL1        0.1390
      9 C         142.5782  137.6526  158.0264 C.ar    1  UNL1        0.0389
     10 C         142.6781  138.4102  159.3172 C.ar    1  UNL1        0.0536
     11 S         142.1664  138.1155  160.6962 S.2     1  UNL1       -0.0514
     12 C         142.5744  139.2463  161.5933 C.ar    1  UNL1        0.1631
     13 N         143.3381  140.2398  160.7689 N.ar    1  UNL1       -0.2225
     14 C         143.4022  139.7231  159.3622 C.ar    1  UNL1        0.1084
     15 C         144.0264  140.2783  158.1164 C.ar    1  UNL1        0.1194
     16 N         143.9264  139.5208  156.8256 N.ar    1  UNL1       -0.2308
     17 N         141.3636  139.7135  167.4513 N.3     1  UNL1       -0.2738
     18 C         139.9918  140.1176  167.9038 C.3     1  UNL1        0.0720
     19 C         139.6892  140.2343  169.3683 C.3     1  UNL1        0.0174
     20 C         140.7584  139.9471  170.3803 C.3     1  UNL1        0.0029
     21 C         142.1303  139.5431  169.9279 C.3     1  UNL1        0.0174
     22 C         142.4329  139.4263  168.4634 C.3     1  UNL1        0.0720
@<TRIPOS>BOND
     1     7     8    1
     2     8     9   ar
     3     9    10   ar
     4    10    11   ar
     5    11    12   ar
     6    12     1    1
     7     1     2    1
     8     2     3    1
     9     3     4    1
    10     4    17    1
    11    17    18    1
    12    18    19    1
    13    19    20    1
    14    20    21    1
    15    21    22    1
    16     4     5    1
    17     5     6    1
    18    12    13   ar
    19    13    14   ar
    20    14    15   ar
    21    15    16   ar
    22    16     8   ar
    23    14    10   ar
    24     6     1    1
    25    22    17    1
@<TRIPOS>MOLECULE
*****
 22 25 0 0 0
SMALL
GASTEIGER

@<TRIPOS>ATOM
      1 N         141.3811  142.7532  163.4295 N.pl3   1  UNL1       -0.2881
      2 C         140.3914  142.9402  164.5410 C.3     1  UNL1        0.0940
      3 C         140.7228  142.4719  165.9269 C.3     1  UNL1        0.0375
      4 C         142.0439  141.8166  166.2014 C.3     1  UNL1        0.0609
      5 C         143.0336  141.6296  165.0899 C.3     1  UNL1        0.0375
      6 C         142.7022  142.0979  163.7039 C.3     1  UNL1        0.0940
      7 CL        140.6395  146.3001  156.4658 Cl      1  UNL1       -0.0613
      8 C         140.4462  145.3239  157.5881 C.ar    1  UNL1        0.1390
      9 C         141.2134  145.4890  158.8664 C.ar    1  UNL1        0.0389
     10 C         141.0201  144.5128  159.9886 C.ar    1  UNL1        0.0536
     11 S         141.6321  144.4202  161.3550 S.2     1  UNL1       -0.0514
     12 C         141.0498  143.2215  162.0435 C.ar    1  UNL1        0.1631
     13 N         140.0779  142.5733  161.1026 N.ar    1  UNL1       -0.2225
     14 C         140.0595  143.3713  159.8327 C.ar    1  UNL1        0.1084
     15 C         139.2923  143.2061  158.5544 C.ar    1  UNL1        0.1194
     16 N         139.4856  144.1824  157.4321 N.ar    1  UNL1       -0.2308
     17 N         142.3752  141.3483  167.5874 N.3     1  UNL1       -0.2738
     18 C         143.0860  142.2646  168.5388 C.3     1  UNL1        0.0720
     19 C         143.4173  141.7963  169.9247 C.3     1  UNL1        0.0174
     20 C         143.0378  140.4116  170.3592 C.3     1  UNL1        0.0029
     21 C         142.3271  139.4953  169.4078 C.3     1  UNL1        0.0174
     22 C         141.9958  139.9636  168.0219 C.3     1  UNL1        0.0720
@<TRIPOS>BOND
     1     7     8    1
     2     8     9   ar
     3     9    10   ar
     4    10    11   ar
     5    11    12   ar
     6    12     1    1
     7     1     2    1
     8     2     3    1
     9     3     4    1
    10     4    17    1
    11    17    18    1
    12    18    19    1
    13    19    20    1
    14    20    21    1
    15    21    22    1
    16     4     5    1
    17     5     6    1
    18    12    13   ar
    19    13    14   ar
    20    14    15   ar
    21    15    16   ar
    22    16     8   ar
    23    14    10   ar
    24     6     1    1
    25    22    17    1
@<TRIPOS>MOLECULE
*****
 22 25 0 0 0
SMALL
GASTEIGER

@<TRIPOS>ATOM
      1 N         140.1267  141.7619  163.4750 N.pl3   1  UNL1       -0.2881
      2 C         139.5205  140.9868  164.6071 C.3     1  UNL1        0.0940
      3 C         139.9976  141.2131  166.0111 C.3     1  UNL1        0.0375
      4 C         141.0808  142.2144  166.2830 C.3     1  UNL1        0.0609
      5 C         141.6869  142.9895  165.1509 C.3     1  UNL1        0.0375
      6 C         141.2099  142.7633  163.7469 C.3     1  UNL1        0.0940
      7 CL        137.2971  142.0469  156.1582 Cl      1  UNL1       -0.0613
      8 C         137.8999  141.5192  157.4263 C.ar    1  UNL1        0.1390
      9 C         138.1232  142.4388  158.5900 C.ar    1  UNL1        0.0389
     10 C         138.7260  141.9111  159.8582 C.ar    1  UNL1        0.0536
     11 S         139.0624  142.5736  161.1612 S.2     1  UNL1       -0.0514
     12 C         139.6497  141.5356  162.0709 C.ar    1  UNL1        0.1631
     13 N         139.6763  140.2316  161.3301 N.ar    1  UNL1       -0.2225
     14 C         139.1055  140.4636  159.9626 C.ar    1  UNL1        0.1084
     15 C         138.8821  139.5440  158.7988 C.ar    1  UNL1        0.1194
     16 N         138.2793  140.0717  157.5307 N.ar    1  UNL1       -0.2308
     17 N         141.5578  142.4407  167.6871 N.3     1  UNL1       -0.2738
     18 C         140.6189  142.9931  168.7183 C.3     1  UNL1        0.0720
     19 C         141.0959  143.2193  170.1222 C.3     1  UNL1        0.0174
     20 C         142.5118  142.8932  170.4950 C.3     1  UNL1        0.0029
     21 C         143.4506  142.3408  169.4638 C.3     1  UNL1        0.0174
     22 C         142.9736  142.1146  168.0598 C.3     1  UNL1        0.0720
@<TRIPOS>BOND
     1     7     8    1
     2     8     9   ar
     3     9    10   ar
     4    10    11   ar
     5    11    12   ar
     6    12     1    1
     7     1     2    1
     8     2     3    1
     9     3     4    1
    10     4    17    1
    11    17    18    1
    12    18    19    1
    13    19    20    1
    14    20    21    1
    15    21    22    1
    16     4     5    1
    17     5     6    1
    18    12    13   ar
    19    13    14   ar
    20    14    15   ar
    21    15    16   ar
    22    16     8   ar
    23    14    10   ar
    24     6     1    1
    25    22    17    1
@<TRIPOS>MOLECULE
*****
 22 25 0 0 0
SMALL
GASTEIGER

@<TRIPOS>ATOM
      1 N         139.4769  140.4827  163.0385 N.pl3   1  UNL1       -0.2881
      2 C         140.6455  141.2826  163.5330 C.3     1  UNL1        0.0940
      3 C         140.7881  141.5753  164.9972 C.3     1  UNL1        0.0375
      4 C         139.7623  141.0681  165.9669 C.3     1  UNL1        0.0609
      5 C         138.5937  140.2681  165.4724 C.3     1  UNL1        0.0375
      6 C         138.4511  139.9754  164.0082 C.3     1  UNL1        0.0940
      7 CL        139.7164  137.8448  155.6488 Cl      1  UNL1       -0.0613
      8 C         139.3537  138.6654  156.8508 C.ar    1  UNL1        0.1390
      9 C         139.9636  138.3518  158.1848 C.ar    1  UNL1        0.0389
     10 C         139.6009  139.1724  159.3869 C.ar    1  UNL1        0.0536
     11 S         140.0372  139.1002  160.8203 S.2     1  UNL1       -0.0514
     12 C         139.3342  140.1899  161.5742 C.ar    1  UNL1        0.1631
     13 N         138.4635  140.9355  160.6068 N.ar    1  UNL1       -0.2225
     14 C         138.6283  140.3067  159.2550 C.ar    1  UNL1        0.1084
     15 C         138.0184  140.6203  157.9210 C.ar    1  UNL1        0.1194
     16 N         138.3811  139.7997  156.7189 N.ar    1  UNL1       -0.2308
     17 N         139.9050  141.3608  167.4312 N.3     1  UNL1       -0.2738
     18 C         139.4988  140.3323  168.4447 C.3     1  UNL1        0.0720
     19 C         139.6415  140.6251  169.9089 C.3     1  UNL1        0.0174
     20 C         140.1904  141.9463  170.3595 C.3     1  UNL1        0.0029
     21 C         140.5966  142.9748  169.3460 C.3     1  UNL1        0.0174
     22 C         140.4539  142.6820  167.8818 C.3     1  UNL1        0.0720
@<TRIPOS>BOND
     1     7     8    1
     2     8     9   ar
     3     9    10   ar
     4    10    11   ar
     5    11    12   ar
     6    12     1    1
     7     1     2    1
     8     2     3    1
     9     3     4    1
    10     4    17    1
    11    17    18    1
    12    18    19    1
    13    19    20    1
    14    20    21    1
    15    21    22    1
    16     4     5    1
    17     5     6    1
    18    12    13   ar
    19    13    14   ar
    20    14    15   ar
    21    15    16   ar
    22    16     8   ar
    23    14    10   ar
    24     6     1    1
    25    22    17    1
@<TRIPOS>MOLECULE
*****
 22 25 0 0 0
SMALL
GASTEIGER

@<TRIPOS>ATOM
      1 N         142.5666  142.6094  163.1633 N.pl3   1  UNL1       -0.2881
      2 C         141.8059  143.8632  162.8483 C.3     1  UNL1        0.0940
      3 C         141.7344  144.3619  161.4355 C.3     1  UNL1        0.0375
      4 C         142.4236  143.6069  160.3377 C.3     1  UNL1        0.0609
      5 C         143.1843  142.3532  160.6528 C.3     1  UNL1        0.0375
      6 C         143.2558  141.8544  162.0656 C.3     1  UNL1        0.0940
      7 CL        142.5515  138.6735  169.9554 Cl      1  UNL1       -0.0613
      8 C         142.6809  139.7923  168.9647 C.ar    1  UNL1        0.1390
      9 C         142.4276  139.5375  167.5084 C.ar    1  UNL1        0.0389
     10 C         142.5570  140.6563  166.5176 C.ar    1  UNL1        0.0536
     11 S         142.3707  140.7061  165.0300 S.2     1  UNL1       -0.0514
     12 C         142.6381  142.1106  164.5762 C.ar    1  UNL1        0.1631
     13 N         142.9897  142.9287  165.7833 N.ar    1  UNL1       -0.2225
     14 C         142.9396  142.0299  166.9832 C.ar    1  UNL1        0.1084
     15 C         143.1928  142.2847  168.4395 C.ar    1  UNL1        0.1194
     16 N         143.0635  141.1659  169.4302 N.ar    1  UNL1       -0.2308
     17 N         142.3520  144.1058  158.9249 N.3     1  UNL1       -0.2738
     18 C         142.9384  143.2902  157.8109 C.3     1  UNL1        0.0720
     19 C         142.8669  143.7890  156.3982 C.3     1  UNL1        0.0174
     20 C         142.2089  145.1035  156.0993 C.3     1  UNL1        0.0029
     21 C         141.6225  145.9191  157.2132 C.3     1  UNL1        0.0174
     22 C         141.6941  145.4202  158.6260 C.3     1  UNL1        0.0720
@<TRIPOS>BOND
     1     7     8    1
     2     8     9   ar
     3     9    10   ar
     4    10    11   ar
     5    11    12   ar
     6    12     1    1
     7     1     2    1
     8     2     3    1
     9     3     4    1
    10     4    17    1
    11    17    18    1
    12    18    19    1
    13    19    20    1
    14    20    21    1
    15    21    22    1
    16     4     5    1
    17     5     6    1
    18    12    13   ar
    19    13    14   ar
    20    14    15   ar
    21    15    16   ar
    22    16     8   ar
    23    14    10   ar
    24     6     1    1
    25    22    17    1
