@<TRIPOS>MOLECULE
*****
 36 38 0 0 0
SMALL
GASTEIGER

@<TRIPOS>ATOM
      1 C         144.0480  139.7981  162.3851 C.ar    1  UNL1        0.0504
      2 C         143.9990  138.8382  161.2335 C.ar    1  UNL1        0.0147
      3 C         143.6999  139.3392  159.8517 C.ar    1  UNL1        0.0014
      4 C         143.4497  140.8002  159.6214 C.ar    1  UNL1        0.0043
      5 C         143.1506  141.3012  158.2396 C.ar    1  UNL1        0.0208
      6 C         142.9004  142.7621  158.0093 C.ar    1  UNL1        0.1003
      7 N         142.9494  143.7221  159.1609 N.ar    1  UNL1       -0.2291
      8 C         143.2485  143.2211  160.5428 C.ar    1  UNL1        0.1322
      9 C         143.4987  141.7601  160.7730 C.ar    1  UNL1        0.0330
     10 C         143.7978  141.2590  162.1548 C.ar    1  UNL1        0.0174
     11 C         143.2261  138.8837  164.6739 C.2     1  UNL1        0.2261
     12 O         141.8059  138.9714  164.1990 O.2     1  UNL1       -0.2748
     13 N         144.3471  139.2971  163.7670 N.am    1  UNL1       -0.2839
     14 H         145.2792  139.2395  164.0787 H       1  UNL1        0.1549
     15 C         143.5252  138.3827  166.0557 C.3     1  UNL1        0.0854
     16 C         142.9384  139.0774  167.2487 C.3     1  UNL1        0.0096
     17 C         142.2618  140.4061  167.0853 C.3     1  UNL1        0.0005
     18 C         142.9115  141.6490  167.6172 C.3     1  UNL1        0.0005
     19 C         142.4962  142.2014  168.9485 C.3     1  UNL1        0.0096
     20 C         142.5912  141.3469  170.1777 C.3     1  UNL1        0.0871
     21 O         140.6916  141.9248  171.8534 O.2     1  UNL1       -0.2730
     22 C         141.3459  140.9538  170.9158 C.2     1  UNL1        0.2443
     23 N         140.7549  139.5896  170.7163 N.am    1  UNL1       -0.1970
     24 O         139.5097  139.1965  171.4544 O.3     1  UNL1       -0.2952
     25 H         141.1843  138.9523  170.1010 H       1  UNL1        0.1822
     26 H         139.2190  139.9337  172.0138 H       1  UNL1        0.2414
     27 N         143.2975  144.1810  161.6943 N.pl3   1  UNL1       -0.2962
     28 H         144.1086  144.7149  161.8559 H       1  UNL1        0.1537
     29 C         142.1105  144.3273  162.5997 C.ar    1  UNL1        0.0772
     30 C         142.1231  143.6971  163.9608 C.ar    1  UNL1        0.0174
     31 C         140.9362  143.8436  164.8661 C.ar    1  UNL1        0.0081
     32 C         139.7365  144.6202  164.4103 C.ar    1  UNL1        0.0369
     33 BR        138.5495  144.7665  165.3157 Br      1  UNL1       -0.0489
     34 C         139.7238  145.2504  163.0492 C.ar    1  UNL1        0.0376
     35 C         140.9108  145.1040  162.1439 C.ar    1  UNL1        0.1539
     36 F         140.8982  145.7342  160.7827 F       1  UNL1       -0.2028
@<TRIPOS>BOND
     1    21    22    2
     2    22    20    1
     3    20    19    1
     4    19    18    1
     5    18    17    1
     6    17    16    1
     7    16    15    1
     8    15    11    1
     9    11    12    2
    10    11    13   am
    11    13     1    1
    12     1     2   ar
    13     2     3   ar
    14     3     4   ar
    15     4     5   ar
    16     5     6   ar
    17     6     7   ar
    18     7     8   ar
    19     8    27    1
    20    27    29    1
    21    29    30   ar
    22    30    31   ar
    23    31    32   ar
    24    32    33    1
    25    32    34   ar
    26    34    35   ar
    27    35    36    1
    28     8     9   ar
    29     9    10   ar
    30    22    23   am
    31    23    24    1
    32    10     1   ar
    33     9     4   ar
    34    35    29   ar
    35    13    14    1
    36    27    28    1
    37    23    25    1
    38    24    26    1
@<TRIPOS>MOLECULE
*****
 36 38 0 0 0
SMALL
GASTEIGER

@<TRIPOS>ATOM
      1 C         141.5311  138.1738  161.9981 C.ar    1  UNL1        0.0504
      2 C         142.3863  137.9232  160.7916 C.ar    1  UNL1        0.0147
      3 C         141.8879  138.2994  159.4277 C.ar    1  UNL1        0.0014
      4 C         140.5343  138.9262  159.2704 C.ar    1  UNL1        0.0043
      5 C         140.0359  139.3024  157.9066 C.ar    1  UNL1        0.0208
      6 C         138.6823  139.9293  157.7493 C.ar    1  UNL1        0.1003
      7 N         137.8270  140.1799  158.9558 N.ar    1  UNL1       -0.2291
      8 C         138.3254  139.8037  160.3197 C.ar    1  UNL1        0.1322
      9 C         139.6791  139.1768  160.4769 C.ar    1  UNL1        0.0330
     10 C         140.1775  138.8006  161.8408 C.ar    1  UNL1        0.0174
     11 C         142.7598  138.8061  164.1981 C.2     1  UNL1        0.2261
     12 O         142.9918  140.1910  163.6705 O.2     1  UNL1       -0.2748
     13 N         142.0295  137.7976  163.3619 N.am    1  UNL1       -0.2839
     14 H         141.8772  136.8886  163.7082 H       1  UNL1        0.1549
     15 C         143.2582  138.4299  165.5620 C.3     1  UNL1        0.0854
     16 C         142.7217  139.1291  166.7758 C.3     1  UNL1        0.0096
     17 C         141.3420  139.7175  166.7539 C.3     1  UNL1        0.0005
     18 C         141.0721  141.0224  167.4425 C.3     1  UNL1        0.0005
     19 C         140.2492  141.0527  168.6962 C.3     1  UNL1        0.0096
     20 C         140.5087  140.0573  169.7880 C.3     1  UNL1        0.0871
     21 O         141.6975  141.3223  171.7211 O.2     1  UNL1       -0.2730
     22 C         141.6919  140.2292  170.6939 C.2     1  UNL1        0.2443
     23 N         142.8695  139.3080  170.5725 N.am    1  UNL1       -0.1970
     24 O         144.0526  139.4799  171.4784 O.3     1  UNL1       -0.2952
     25 H         142.8658  138.5906  169.8983 H       1  UNL1        0.1822
     26 H         143.8951  140.2259  172.0780 H       1  UNL1        0.2414
     27 N         137.4702  140.0543  161.5262 N.pl3   1  UNL1       -0.2962
     28 H         136.7090  139.4613  161.7218 H       1  UNL1        0.1537
     29 C         137.7747  141.2084  162.4347 C.ar    1  UNL1        0.0772
     30 C         137.8288  142.6026  161.8839 C.ar    1  UNL1        0.0174
     31 C         138.1333  143.7566  162.7925 C.ar    1  UNL1        0.0081
     32 C         138.3836  143.5165  164.2518 C.ar    1  UNL1        0.0369
     33 BR        138.6881  144.6706  165.1603 Br      1  UNL1       -0.0489
     34 C         138.3294  142.1224  164.8026 C.ar    1  UNL1        0.0376
     35 C         138.0250  140.9683  163.8941 C.ar    1  UNL1        0.1539
     36 F         137.9708  139.5741  164.4449 F       1  UNL1       -0.2028
@<TRIPOS>BOND
     1    21    22    2
     2    22    20    1
     3    20    19    1
     4    19    18    1
     5    18    17    1
     6    17    16    1
     7    16    15    1
     8    15    11    1
     9    11    12    2
    10    11    13   am
    11    13     1    1
    12     1     2   ar
    13     2     3   ar
    14     3     4   ar
    15     4     5   ar
    16     5     6   ar
    17     6     7   ar
    18     7     8   ar
    19     8    27    1
    20    27    29    1
    21    29    30   ar
    22    30    31   ar
    23    31    32   ar
    24    32    33    1
    25    32    34   ar
    26    34    35   ar
    27    35    36    1
    28     8     9   ar
    29     9    10   ar
    30    22    23   am
    31    23    24    1
    32    10     1   ar
    33     9     4   ar
    34    35    29   ar
    35    13    14    1
    36    27    28    1
    37    23    25    1
    38    24    26    1
@<TRIPOS>MOLECULE
*****
 36 38 0 0 0
SMALL
GASTEIGER

@<TRIPOS>ATOM
      1 C         140.1070  137.9228  162.3018 C.ar    1  UNL1        0.0504
      2 C         139.1296  137.9623  161.1647 C.ar    1  UNL1        0.0147
      3 C         139.5861  138.3778  159.7975 C.ar    1  UNL1        0.0014
      4 C         141.0199  138.7536  159.5675 C.ar    1  UNL1        0.0043
      5 C         141.4763  139.1691  158.2004 C.ar    1  UNL1        0.0208
      6 C         142.9101  139.5450  157.9704 C.ar    1  UNL1        0.1003
      7 N         143.8875  139.5054  159.1076 N.ar    1  UNL1       -0.2291
      8 C         143.4311  139.0900  160.4748 C.ar    1  UNL1        0.1322
      9 C         141.9972  138.7141  160.7047 C.ar    1  UNL1        0.0330
     10 C         141.5408  138.2987  162.0719 C.ar    1  UNL1        0.0174
     11 C         138.8318  138.4467  164.5040 C.2     1  UNL1        0.2261
     12 O         138.4695  139.8016  163.9718 O.2     1  UNL1       -0.2748
     13 N         139.6505  137.5074  163.6690 N.am    1  UNL1       -0.2839
     14 H         139.8883  136.6181  164.0182 H       1  UNL1        0.1549
     15 C         138.3754  138.0313  165.8711 C.3     1  UNL1        0.0854
     16 C         138.0907  139.0705  166.9147 C.3     1  UNL1        0.0096
     17 C         139.2205  139.6981  167.6760 C.3     1  UNL1        0.0005
     18 C         140.0049  140.8207  167.0643 C.3     1  UNL1        0.0005
     19 C         140.7364  141.7910  167.9437 C.3     1  UNL1        0.0096
     20 C         140.1865  142.1403  169.2949 C.3     1  UNL1        0.0871
     21 O         140.4713  142.2084  171.8765 O.2     1  UNL1       -0.2730
     22 C         140.9051  141.6970  170.5347 C.2     1  UNL1        0.2443
     23 N         142.0576  140.7424  170.4327 N.am    1  UNL1       -0.1970
     24 O         142.7763  140.2991  171.6724 O.3     1  UNL1       -0.2952
     25 H         142.3423  140.4068  169.5520 H       1  UNL1        0.1822
     26 H         142.3728  140.7195  172.4479 H       1  UNL1        0.2414
     27 N         144.4084  139.0505  161.6119 N.pl3   1  UNL1       -0.2962
     28 H         145.0185  138.2840  161.7103 H       1  UNL1        0.1537
     29 C         144.4563  140.1787  162.5993 C.ar    1  UNL1        0.0772
     30 C         144.8621  141.5512  162.1508 C.ar    1  UNL1        0.0174
     31 C         144.9100  142.6794  163.1382 C.ar    1  UNL1        0.0081
     32 C         144.5520  142.4349  164.5741 C.ar    1  UNL1        0.0369
     33 BR        144.5998  143.5631  165.5616 Br      1  UNL1       -0.0489
     34 C         144.1461  141.0623  165.0227 C.ar    1  UNL1        0.0376
     35 C         144.0983  139.9342  164.0353 C.ar    1  UNL1        0.1539
     36 F         143.6924  138.5616  164.4839 F       1  UNL1       -0.2028
@<TRIPOS>BOND
     1    21    22    2
     2    22    20    1
     3    20    19    1
     4    19    18    1
     5    18    17    1
     6    17    16    1
     7    16    15    1
     8    15    11    1
     9    11    12    2
    10    11    13   am
    11    13     1    1
    12     1     2   ar
    13     2     3   ar
    14     3     4   ar
    15     4     5   ar
    16     5     6   ar
    17     6     7   ar
    18     7     8   ar
    19     8    27    1
    20    27    29    1
    21    29    30   ar
    22    30    31   ar
    23    31    32   ar
    24    32    33    1
    25    32    34   ar
    26    34    35   ar
    27    35    36    1
    28     8     9   ar
    29     9    10   ar
    30    22    23   am
    31    23    24    1
    32    10     1   ar
    33     9     4   ar
    34    35    29   ar
    35    13    14    1
    36    27    28    1
    37    23    25    1
    38    24    26    1
@<TRIPOS>MOLECULE
*****
 36 38 0 0 0
SMALL
GASTEIGER

@<TRIPOS>ATOM
      1 C         138.9161  138.8084  165.3897 C.ar    1  UNL1        0.0504
      2 C         138.0227  138.3688  166.5115 C.ar    1  UNL1        0.0147
      3 C         138.1381  139.0159  167.8598 C.ar    1  UNL1        0.0014
      4 C         139.1470  140.1025  168.0864 C.ar    1  UNL1        0.0043
      5 C         139.2624  140.7495  169.4347 C.ar    1  UNL1        0.0208
      6 C         140.2713  141.8362  169.6612 C.ar    1  UNL1        0.1003
      7 N         141.1648  142.2758  168.5394 N.ar    1  UNL1       -0.2291
      8 C         141.0494  141.6288  167.1911 C.ar    1  UNL1        0.1322
      9 C         140.0404  140.5421  166.9646 C.ar    1  UNL1        0.0330
     10 C         139.9250  139.8950  165.6162 C.ar    1  UNL1        0.0174
     11 C         138.2497  138.9372  162.8819 C.2     1  UNL1        0.2261
     12 O         137.8141  140.3601  163.0707 O.2     1  UNL1       -0.2748
     13 N         138.8007  138.1613  164.0414 N.am    1  UNL1       -0.2839
     14 H         139.0865  137.2274  163.9174 H       1  UNL1        0.1549
     15 C         138.1343  138.2901  161.5335 C.3     1  UNL1        0.0854
     16 C         139.3255  138.2353  160.6235 C.3     1  UNL1        0.0096
     17 C         140.6462  138.7779  161.0833 C.3     1  UNL1        0.0005
     18 C         141.6368  137.8724  161.7531 C.3     1  UNL1        0.0005
     19 C         142.7342  138.4532  162.5948 C.3     1  UNL1        0.0096
     20 C         142.8114  139.9361  162.8075 C.3     1  UNL1        0.0871
     21 O         144.2280  140.4892  164.9140 O.2     1  UNL1       -0.2730
     22 C         144.0356  140.5421  163.4273 C.2     1  UNL1        0.2443
     23 N         145.0673  141.2010  162.5605 N.am    1  UNL1       -0.1970
     24 O         146.2914  141.8070  163.1802 O.3     1  UNL1       -0.2952
     25 H         144.9409  141.2357  161.5847 H       1  UNL1        0.1822
     26 H         146.2599  141.6871  164.1423 H       1  UNL1        0.2414
     27 N         141.9428  142.0684  166.0692 N.pl3   1  UNL1       -0.2962
     28 H         142.8512  141.6974  165.9892 H       1  UNL1        0.1537
     29 C         141.4522  143.0732  165.0694 C.ar    1  UNL1        0.0772
     30 C         139.9795  143.2917  164.8864 C.ar    1  UNL1        0.0174
     31 C         139.4890  144.2966  163.8866 C.ar    1  UNL1        0.0081
     32 C         140.4711  145.0829  163.0698 C.ar    1  UNL1        0.0369
     33 BR        139.9805  146.0877  162.0699 Br      1  UNL1       -0.0489
     34 C         141.9437  144.8643  163.2528 C.ar    1  UNL1        0.0376
     35 C         142.4343  143.8595  164.2526 C.ar    1  UNL1        0.1539
     36 F         143.9070  143.6410  164.4356 F       1  UNL1       -0.2028
@<TRIPOS>BOND
     1    21    22    2
     2    22    20    1
     3    20    19    1
     4    19    18    1
     5    18    17    1
     6    17    16    1
     7    16    15    1
     8    15    11    1
     9    11    12    2
    10    11    13   am
    11    13     1    1
    12     1     2   ar
    13     2     3   ar
    14     3     4   ar
    15     4     5   ar
    16     5     6   ar
    17     6     7   ar
    18     7     8   ar
    19     8    27    1
    20    27    29    1
    21    29    30   ar
    22    30    31   ar
    23    31    32   ar
    24    32    33    1
    25    32    34   ar
    26    34    35   ar
    27    35    36    1
    28     8     9   ar
    29     9    10   ar
    30    22    23   am
    31    23    24    1
    32    10     1   ar
    33     9     4   ar
    34    35    29   ar
    35    13    14    1
    36    27    28    1
    37    23    25    1
    38    24    26    1
@<TRIPOS>MOLECULE
*****
 36 38 0 0 0
SMALL
GASTEIGER

@<TRIPOS>ATOM
      1 C         139.2493  142.1357  160.3881 C.ar    1  UNL1        0.0504
      2 C         138.2963  141.5440  159.3923 C.ar    1  UNL1        0.0147
      3 C         138.7383  140.4130  158.5117 C.ar    1  UNL1        0.0014
      4 C         140.1332  139.8737  158.6269 C.ar    1  UNL1        0.0043
      5 C         140.5751  138.7427  157.7463 C.ar    1  UNL1        0.0208
      6 C         141.9700  138.2034  157.8615 C.ar    1  UNL1        0.1003
      7 N         142.9231  138.7951  158.8574 N.ar    1  UNL1       -0.2291
      8 C         142.4811  139.9261  159.7380 C.ar    1  UNL1        0.1322
      9 C         141.0861  140.4654  159.6227 C.ar    1  UNL1        0.0330
     10 C         140.6442  141.5964  160.5033 C.ar    1  UNL1        0.0174
     11 C         137.9821  142.9882  162.4899 C.2     1  UNL1        0.2261
     12 O         137.5988  141.5785  162.8306 O.2     1  UNL1       -0.2748
     13 N         138.8073  143.2668  161.2687 N.am    1  UNL1       -0.2839
     14 H         139.0589  144.1920  161.0452 H       1  UNL1        0.1549
     15 C         137.5401  144.1192  163.3705 C.3     1  UNL1        0.0854
     16 C         138.3621  144.5056  164.5643 C.3     1  UNL1        0.0096
     17 C         139.8409  144.7129  164.4214 C.3     1  UNL1        0.0005
     18 C         140.7948  143.6477  164.8743 C.3     1  UNL1        0.0005
     19 C         141.6276  142.9097  163.8684 C.3     1  UNL1        0.0096
     20 C         142.8581  143.5509  163.2984 C.3     1  UNL1        0.0871
     21 O         143.8506  143.4525  160.8993 O.2     1  UNL1       -0.2730
     22 C         142.8661  144.0254  161.8754 C.2     1  UNL1        0.2443
     23 N         141.8895  145.0725  161.4285 N.am    1  UNL1       -0.1970
     24 O         141.8975  145.5470  160.0056 O.3     1  UNL1       -0.2952
     25 H         141.2434  145.4485  162.0692 H       1  UNL1        0.1822
     26 H         142.5894  145.0790  159.5126 H       1  UNL1        0.2414
     27 N         143.4341  140.5178  160.7338 N.pl3   1  UNL1       -0.2962
     28 H         144.0232  141.2612  160.4698 H       1  UNL1        0.1537
     29 C         143.4896  139.9770  162.1319 C.ar    1  UNL1        0.0772
     30 C         142.4582  138.9919  162.5964 C.ar    1  UNL1        0.0174
     31 C         142.5137  138.4511  163.9944 C.ar    1  UNL1        0.0081
     32 C         143.6006  138.8954  164.9278 C.ar    1  UNL1        0.0369
     33 BR        143.6561  138.3545  166.3259 Br      1  UNL1       -0.0489
     34 C         144.6320  139.8804  164.4633 C.ar    1  UNL1        0.0376
     35 C         144.5765  140.4212  163.0653 C.ar    1  UNL1        0.1539
     36 F         145.6079  141.4063  162.6006 F       1  UNL1       -0.2028
@<TRIPOS>BOND
     1    21    22    2
     2    22    20    1
     3    20    19    1
     4    19    18    1
     5    18    17    1
     6    17    16    1
     7    16    15    1
     8    15    11    1
     9    11    12    2
    10    11    13   am
    11    13     1    1
    12     1     2   ar
    13     2     3   ar
    14     3     4   ar
    15     4     5   ar
    16     5     6   ar
    17     6     7   ar
    18     7     8   ar
    19     8    27    1
    20    27    29    1
    21    29    30   ar
    22    30    31   ar
    23    31    32   ar
    24    32    33    1
    25    32    34   ar
    26    34    35   ar
    27    35    36    1
    28     8     9   ar
    29     9    10   ar
    30    22    23   am
    31    23    24    1
    32    10     1   ar
    33     9     4   ar
    34    35    29   ar
    35    13    14    1
    36    27    28    1
    37    23    25    1
    38    24    26    1
@<TRIPOS>MOLECULE
*****
 36 38 0 0 0
SMALL
GASTEIGER

@<TRIPOS>ATOM
      1 C         144.3942  141.9749  160.8565 C.ar    1  UNL1        0.0504
      2 C         144.3301  142.5385  159.4679 C.ar    1  UNL1        0.0147
      3 C         143.9250  141.6615  158.3205 C.ar    1  UNL1        0.0014
      4 C         143.5838  140.2209  158.5616 C.ar    1  UNL1        0.0043
      5 C         143.1787  139.3438  157.4142 C.ar    1  UNL1        0.0208
      6 C         142.8376  137.9032  157.6553 C.ar    1  UNL1        0.1003
      7 N         142.9016  137.3395  159.0439 N.ar    1  UNL1       -0.2291
      8 C         143.3068  138.2166  160.1914 C.ar    1  UNL1        0.1322
      9 C         143.6479  139.6573  159.9502 C.ar    1  UNL1        0.0330
     10 C         144.0531  140.5343  161.0976 C.ar    1  UNL1        0.0174
     11 C         143.7678  143.6678  162.7251 C.2     1  UNL1        0.2261
     12 O         142.3309  143.6067  162.2988 O.2     1  UNL1       -0.2748
     13 N         144.7994  142.8519  162.0040 N.am    1  UNL1       -0.2839
     14 H         145.7424  142.8921  162.2838 H       1  UNL1        0.1549
     15 C         144.1730  144.5448  163.8725 C.3     1  UNL1        0.0854
     16 C         144.4304  143.9429  165.2222 C.3     1  UNL1        0.0096
     17 C         143.9509  142.5549  165.5281 C.3     1  UNL1        0.0005
     18 C         142.5501  142.3361  166.0176 C.3     1  UNL1        0.0005
     19 C         142.3061  141.5232  167.2544 C.3     1  UNL1        0.0096
     20 C         142.9814  141.8947  168.5414 C.3     1  UNL1        0.0871
     21 O         143.0718  139.5323  169.6190 O.2     1  UNL1       -0.2730
     22 C         142.8419  141.0094  169.7442 C.2     1  UNL1        0.2443
     23 N         142.4726  141.6010  171.0721 N.am    1  UNL1       -0.1970
     24 O         142.3332  140.7158  172.2750 O.3     1  UNL1       -0.2952
     25 H         142.3218  142.5704  171.1543 H       1  UNL1        0.1822
     26 H         142.5140  139.7967  172.0228 H       1  UNL1        0.2414
     27 N         143.3709  137.6530  161.5800 N.pl3   1  UNL1       -0.2962
     28 H         144.1512  137.1221  161.8602 H       1  UNL1        0.1537
     29 C         142.2460  137.8982  162.5416 C.ar    1  UNL1        0.0772
     30 C         140.8409  137.5379  162.1598 C.ar    1  UNL1        0.0174
     31 C         139.7162  137.7832  163.1214 C.ar    1  UNL1        0.0081
     32 C         139.9966  138.3887  164.4649 C.ar    1  UNL1        0.0369
     33 BR        138.8717  138.6339  165.4265 Br      1  UNL1       -0.0489
     34 C         141.4017  138.7489  164.8466 C.ar    1  UNL1        0.0376
     35 C         142.5264  138.5037  163.8850 C.ar    1  UNL1        0.1539
     36 F         143.9316  138.8640  164.2668 F       1  UNL1       -0.2028
@<TRIPOS>BOND
     1    21    22    2
     2    22    20    1
     3    20    19    1
     4    19    18    1
     5    18    17    1
     6    17    16    1
     7    16    15    1
     8    15    11    1
     9    11    12    2
    10    11    13   am
    11    13     1    1
    12     1     2   ar
    13     2     3   ar
    14     3     4   ar
    15     4     5   ar
    16     5     6   ar
    17     6     7   ar
    18     7     8   ar
    19     8    27    1
    20    27    29    1
    21    29    30   ar
    22    30    31   ar
    23    31    32   ar
    24    32    33    1
    25    32    34   ar
    26    34    35   ar
    27    35    36    1
    28     8     9   ar
    29     9    10   ar
    30    22    23   am
    31    23    24    1
    32    10     1   ar
    33     9     4   ar
    34    35    29   ar
    35    13    14    1
    36    27    28    1
    37    23    25    1
    38    24    26    1
@<TRIPOS>MOLECULE
*****
 36 38 0 0 0
SMALL
GASTEIGER

@<TRIPOS>ATOM
      1 C         139.1202  140.2069  160.6756 C.ar    1  UNL1        0.0504
      2 C         138.6891  140.3324  159.2445 C.ar    1  UNL1        0.0147
      3 C         139.4659  139.6404  158.1638 C.ar    1  UNL1        0.0014
      4 C         140.6737  138.8230  158.5143 C.ar    1  UNL1        0.0043
      5 C         141.4505  138.1310  157.4337 C.ar    1  UNL1        0.0208
      6 C         142.6583  137.3136  157.7842 C.ar    1  UNL1        0.1003
      7 N         143.0894  137.1881  159.2155 N.ar    1  UNL1       -0.2291
      8 C         142.3127  137.8801  160.2961 C.ar    1  UNL1        0.1322
      9 C         141.1048  138.6975  159.9455 C.ar    1  UNL1        0.0330
     10 C         140.3280  139.3895  161.0262 C.ar    1  UNL1        0.0174
     11 C         138.4918  142.3780  161.9569 C.2     1  UNL1        0.2261
     12 O         139.4170  143.1651  161.0768 O.2     1  UNL1       -0.2748
     13 N         138.3435  140.8989  161.7563 N.am    1  UNL1       -0.2839
     14 H         137.7363  140.3823  162.3339 H       1  UNL1        0.1549
     15 C         137.7151  143.0699  163.0376 C.3     1  UNL1        0.0854
     16 C         138.1575  144.4138  163.5361 C.3     1  UNL1        0.0096
     17 C         139.0903  144.5095  164.7069 C.3     1  UNL1        0.0005
     18 C         140.0695  143.4060  164.9779 C.3     1  UNL1        0.0005
     19 C         141.5237  143.6001  164.6652 C.3     1  UNL1        0.0096
     20 C         141.9872  144.8672  164.0094 C.3     1  UNL1        0.0871
     21 O         143.5300  144.3521  161.9834 O.2     1  UNL1       -0.2730
     22 C         142.2442  144.8964  162.5319 C.2     1  UNL1        0.2443
     23 N         141.2156  145.4698  161.6029 N.am    1  UNL1       -0.1970
     24 O         141.4727  145.4990  160.1254 O.3     1  UNL1       -0.2952
     25 H         140.3718  145.8270  161.9629 H       1  UNL1        0.1822
     26 H         142.3427  145.1119  159.9408 H       1  UNL1        0.2414
     27 N         142.7438  137.7546  161.7273 N.pl3   1  UNL1       -0.2962
     28 H         142.6258  136.9014  162.2040 H       1  UNL1        0.1537
     29 C         143.3547  138.9293  162.4323 C.ar    1  UNL1        0.0772
     30 C         144.1766  139.9210  161.6636 C.ar    1  UNL1        0.0174
     31 C         144.7874  141.0956  162.3686 C.ar    1  UNL1        0.0081
     32 C         144.5764  141.2785  163.8424 C.ar    1  UNL1        0.0369
     33 BR        145.1873  142.4532  164.5474 Br      1  UNL1       -0.0489
     34 C         143.7545  140.2868  164.6111 C.ar    1  UNL1        0.0376
     35 C         143.1437  139.1122  163.9061 C.ar    1  UNL1        0.1539
     36 F         142.3218  138.1205  164.6749 F       1  UNL1       -0.2028
@<TRIPOS>BOND
     1    21    22    2
     2    22    20    1
     3    20    19    1
     4    19    18    1
     5    18    17    1
     6    17    16    1
     7    16    15    1
     8    15    11    1
     9    11    12    2
    10    11    13   am
    11    13     1    1
    12     1     2   ar
    13     2     3   ar
    14     3     4   ar
    15     4     5   ar
    16     5     6   ar
    17     6     7   ar
    18     7     8   ar
    19     8    27    1
    20    27    29    1
    21    29    30   ar
    22    30    31   ar
    23    31    32   ar
    24    32    33    1
    25    32    34   ar
    26    34    35   ar
    27    35    36    1
    28     8     9   ar
    29     9    10   ar
    30    22    23   am
    31    23    24    1
    32    10     1   ar
    33     9     4   ar
    34    35    29   ar
    35    13    14    1
    36    27    28    1
    37    23    25    1
    38    24    26    1
@<TRIPOS>MOLECULE
*****
 36 38 0 0 0
SMALL
GASTEIGER

@<TRIPOS>ATOM
      1 C         138.7361  142.1027  161.0957 C.ar    1  UNL1        0.0504
      2 C         138.1106  141.7512  159.7785 C.ar    1  UNL1        0.0147
      3 C         138.5468  142.4570  158.5289 C.ar    1  UNL1        0.0014
      4 C         139.6086  143.5144  158.5965 C.ar    1  UNL1        0.0043
      5 C         140.0448  144.2203  157.3470 C.ar    1  UNL1        0.0208
      6 C         141.1065  145.2777  157.4146 C.ar    1  UNL1        0.1003
      7 N         141.7321  145.6292  158.7319 N.ar    1  UNL1       -0.2291
      8 C         141.2959  144.9233  159.9815 C.ar    1  UNL1        0.1322
      9 C         140.2341  143.8659  159.9138 C.ar    1  UNL1        0.0330
     10 C         139.7979  143.1600  161.1633 C.ar    1  UNL1        0.0174
     11 C         138.9091  140.0762  162.7122 C.2     1  UNL1        0.2261
     12 O         139.9547  139.4613  161.8296 O.2     1  UNL1       -0.2748
     13 N         138.2999  141.3968  162.3453 N.am    1  UNL1       -0.2839
     14 H         137.6137  141.8003  162.9245 H       1  UNL1        0.1549
     15 C         138.4729  139.3703  163.9618 C.3     1  UNL1        0.0854
     16 C         138.2450  140.1499  165.2229 C.3     1  UNL1        0.0096
     17 C         139.4148  140.6614  166.0102 C.3     1  UNL1        0.0005
     18 C         140.4941  139.7168  166.4493 C.3     1  UNL1        0.0005
     19 C         141.9290  140.0184  166.1331 C.3     1  UNL1        0.0096
     20 C         142.7864  138.9787  165.4742 C.3     1  UNL1        0.0871
     21 O         143.1190  139.1829  162.9056 O.2     1  UNL1       -0.2730
     22 C         142.4695  138.5173  164.0826 C.2     1  UNL1        0.2443
     23 N         141.5032  137.3904  163.8678 N.am    1  UNL1       -0.1970
     24 O         141.1863  136.9290  162.4762 O.3     1  UNL1       -0.2952
     25 H         141.0769  136.9535  164.6403 H       1  UNL1        0.1822
     26 H         141.6868  137.4605  161.8375 H       1  UNL1        0.2414
     27 N         141.9214  145.2748  161.2987 N.pl3   1  UNL1       -0.2962
     28 H         141.7101  146.1340  161.7303 H       1  UNL1        0.1537
     29 C         142.8690  144.3171  161.9583 C.ar    1  UNL1        0.0772
     30 C         143.5695  143.2725  161.1410 C.ar    1  UNL1        0.0174
     31 C         144.5170  142.3149  161.8007 C.ar    1  UNL1        0.0081
     32 C         144.7641  142.4020  163.2776 C.ar    1  UNL1        0.0369
     33 BR        145.7116  141.4443  163.9373 Br      1  UNL1       -0.0489
     34 C         144.0636  143.4466  164.0949 C.ar    1  UNL1        0.0376
     35 C         143.1161  144.4042  163.4353 C.ar    1  UNL1        0.1539
     36 F         142.4156  145.4489  164.2526 F       1  UNL1       -0.2028
@<TRIPOS>BOND
     1    21    22    2
     2    22    20    1
     3    20    19    1
     4    19    18    1
     5    18    17    1
     6    17    16    1
     7    16    15    1
     8    15    11    1
     9    11    12    2
    10    11    13   am
    11    13     1    1
    12     1     2   ar
    13     2     3   ar
    14     3     4   ar
    15     4     5   ar
    16     5     6   ar
    17     6     7   ar
    18     7     8   ar
    19     8    27    1
    20    27    29    1
    21    29    30   ar
    22    30    31   ar
    23    31    32   ar
    24    32    33    1
    25    32    34   ar
    26    34    35   ar
    27    35    36    1
    28     8     9   ar
    29     9    10   ar
    30    22    23   am
    31    23    24    1
    32    10     1   ar
    33     9     4   ar
    34    35    29   ar
    35    13    14    1
    36    27    28    1
    37    23    25    1
    38    24    26    1
@<TRIPOS>MOLECULE
*****
 36 38 0 0 0
SMALL
GASTEIGER

@<TRIPOS>ATOM
      1 C         139.0249  138.9674  165.0344 C.ar    1  UNL1        0.0504
      2 C         138.0938  138.3544  166.0380 C.ar    1  UNL1        0.0147
      3 C         138.1246  138.8112  167.4665 C.ar    1  UNL1        0.0014
      4 C         139.0864  139.8809  167.8913 C.ar    1  UNL1        0.0043
      5 C         139.1172  140.3376  169.3197 C.ar    1  UNL1        0.0208
      6 C         140.0791  141.4073  169.7446 C.ar    1  UNL1        0.1003
      7 N         141.0102  142.0203  168.7409 N.ar    1  UNL1       -0.2291
      8 C         140.9795  141.5636  167.3125 C.ar    1  UNL1        0.1322
      9 C         140.0175  140.4938  166.8877 C.ar    1  UNL1        0.0330
     10 C         139.9868  140.0371  165.4592 C.ar    1  UNL1        0.0174
     11 C         138.2157  139.2882  162.5865 C.2     1  UNL1        0.2261
     12 O         137.4680  140.5227  162.9955 O.2     1  UNL1       -0.2748
     13 N         138.9942  138.5106  163.6060 N.am    1  UNL1       -0.2839
     14 H         139.4849  137.7005  163.3376 H       1  UNL1        0.1549
     15 C         138.1850  138.8315  161.1581 C.3     1  UNL1        0.0854
     16 C         138.9973  139.5515  160.1228 C.3     1  UNL1        0.0096
     17 C         139.8127  138.7721  159.1339 C.3     1  UNL1        0.0005
     18 C         141.0826  139.3525  158.5859 C.3     1  UNL1        0.0005
     19 C         142.4062  138.7677  158.9809 C.3     1  UNL1        0.0096
     20 C         142.9887  139.0730  160.3291 C.3     1  UNL1        0.0871
     21 O         141.7395  139.7126  162.5155 O.2     1  UNL1       -0.2730
     22 C         142.2552  138.6661  161.5726 C.2     1  UNL1        0.2443
     23 N         142.0374  137.2128  161.8732 N.am    1  UNL1       -0.1970
     24 O         141.3039  136.8059  163.1168 O.3     1  UNL1       -0.2952
     25 H         142.3759  136.5260  161.2544 H       1  UNL1        0.1822
     26 H         141.0409  137.5981  163.6109 H       1  UNL1        0.2414
     27 N         141.9106  142.1765  166.3089 N.pl3   1  UNL1       -0.2962
     28 H         142.8731  141.9723  166.3414 H       1  UNL1        0.1537
     29 C         141.3751  143.1007  165.2556 C.ar    1  UNL1        0.0772
     30 C         140.0577  143.7880  165.4602 C.ar    1  UNL1        0.0174
     31 C         139.5224  144.7121  164.4070 C.ar    1  UNL1        0.0081
     32 C         140.3045  144.9489  163.1491 C.ar    1  UNL1        0.0369
     33 BR        139.7690  145.8731  162.0958 Br      1  UNL1       -0.0489
     34 C         141.6219  144.2616  162.9445 C.ar    1  UNL1        0.0376
     35 C         142.1572  143.3375  163.9977 C.ar    1  UNL1        0.1539
     36 F         143.4748  142.6502  163.7931 F       1  UNL1       -0.2028
@<TRIPOS>BOND
     1    21    22    2
     2    22    20    1
     3    20    19    1
     4    19    18    1
     5    18    17    1
     6    17    16    1
     7    16    15    1
     8    15    11    1
     9    11    12    2
    10    11    13   am
    11    13     1    1
    12     1     2   ar
    13     2     3   ar
    14     3     4   ar
    15     4     5   ar
    16     5     6   ar
    17     6     7   ar
    18     7     8   ar
    19     8    27    1
    20    27    29    1
    21    29    30   ar
    22    30    31   ar
    23    31    32   ar
    24    32    33    1
    25    32    34   ar
    26    34    35   ar
    27    35    36    1
    28     8     9   ar
    29     9    10   ar
    30    22    23   am
    31    23    24    1
    32    10     1   ar
    33     9     4   ar
    34    35    29   ar
    35    13    14    1
    36    27    28    1
    37    23    25    1
    38    24    26    1
