@<TRIPOS>MOLECULE
*****
 33 36 0 0 0
SMALL
GASTEIGER

@<TRIPOS>ATOM
      1 C         142.0870  142.7017  162.0198 C.3     1  UNL1        0.1171
      2 N         141.5143  141.9551  163.1881 N.am    1  UNL1       -0.2557
      3 C         141.8746  142.3602  164.5866 C.2     1  UNL1        0.3150
      4 O         142.8076  143.5120  164.8170 O.2     1  UNL1       -0.2516
      5 N         141.3020  141.6136  165.7548 N.am    1  UNL1       -0.2256
      6 C         140.3690  140.4619  165.5244 C.2     1  UNL1        0.0380
      7 C         140.0087  140.0568  164.1258 C.2     1  UNL1        0.0446
      8 C         139.0706  138.8892  164.2086 C.2     1  UNL1        0.1722
      9 O         138.4593  138.1652  163.0457 O.2     1  UNL1       -0.2916
     10 C         138.8512  138.5728  165.6583 C.3     1  UNL1        0.0749
     11 C         139.6536  139.5448  166.4715 C.3     1  UNL1        0.0498
     12 C         140.5813  140.8033  162.9576 C.3     1  UNL1        0.1254
     13 C         141.6623  142.0188  167.1534 C.ar    1  UNL1        0.0592
     14 C         143.0862  141.9298  167.6167 C.ar    1  UNL1        0.0153
     15 C         143.4465  142.3350  169.0153 C.ar    1  UNL1        0.0012
     16 C         142.3830  142.8291  169.9506 C.ar    1  UNL1        0.0039
     17 C         140.9591  142.9181  169.4872 C.ar    1  UNL1        0.0727
     18 C         140.5987  142.5130  168.0887 C.ar    1  UNL1        0.0191
     19 C         139.8955  143.4122  170.4224 C.3     1  UNL1        0.4186
     20 F         138.8320  143.9064  171.3577 F       1  UNL1       -0.1659
     21 F         139.3954  142.0087  170.5952 F       1  UNL1       -0.1659
     22 F         140.3957  144.8158  170.2496 F       1  UNL1       -0.1659
     23 C         140.2210  140.3982  161.5590 C.ar    1  UNL1       -0.0015
     24 C         141.1283  139.4890  160.7843 C.ar    1  UNL1       -0.0019
     25 C         140.7680  139.0839  159.3857 C.ar    1  UNL1        0.0100
     26 C         139.5005  139.5880  158.7618 C.ar    1  UNL1        0.0682
     27 C         138.5933  140.4972  159.5365 C.ar    1  UNL1        0.0082
     28 C         138.9535  140.9024  160.9351 C.ar    1  UNL1        0.0055
     29 C         138.0462  141.8116  161.7098 C.3     1  UNL1        0.1634
     30 O         136.9018  141.2397  162.4929 O.3     1  UNL1       -0.3772
     31 H         136.2569  140.8476  161.8835 H       1  UNL1        0.2109
     32 C         139.1403  139.1829  157.3632 C.1     1  UNL1        0.1004
     33 N         138.7801  138.7778  155.9646 N.1     1  UNL1       -0.1908
@<TRIPOS>BOND
     1     1     2    1
     2     2     3   am
     3     3     4    2
     4     3     5   am
     5     5    13    1
     6    13    14   ar
     7    14    15   ar
     8    15    16   ar
     9    16    17   ar
    10    17    19    1
    11    19    20    1
    12    19    21    1
    13    19    22    1
    14    17    18   ar
    15     5     6    1
    16     6     7    2
    17     7     8    1
    18     8     9    2
    19     8    10    1
    20    10    11    1
    21     7    12    1
    22    12    23    1
    23    23    24   ar
    24    24    25   ar
    25    25    26   ar
    26    26    32    1
    27    32    33    3
    28    26    27   ar
    29    27    28   ar
    30    28    29    1
    31    29    30    1
    32    12     2    1
    33    28    23   ar
    34    18    13   ar
    35    11     6    1
    36    30    31    1
@<TRIPOS>MOLECULE
*****
 33 36 0 0 0
SMALL
GASTEIGER

@<TRIPOS>ATOM
      1 C         143.4425  144.1365  162.4459 C.3     1  UNL1        0.1171
      2 N         142.2256  143.4835  163.0313 N.am    1  UNL1       -0.2557
      3 C         142.2596  142.9555  164.4349 C.2     1  UNL1        0.3150
      4 O         143.5106  143.0805  165.2531 O.2     1  UNL1       -0.2516
      5 N         141.0427  142.3025  165.0203 N.am    1  UNL1       -0.2256
      6 C         139.7917  142.1775  164.2021 C.2     1  UNL1        0.0380
      7 C         139.7577  142.7055  162.7985 C.2     1  UNL1        0.0446
      8 C         138.3921  142.4415  162.2369 C.2     1  UNL1        0.1722
      9 O         137.9194  142.8048  160.8604 O.2     1  UNL1       -0.2916
     10 C         137.5821  141.7503  163.2934 C.3     1  UNL1        0.0749
     11 C         138.4471  141.5872  164.5080 C.3     1  UNL1        0.0498
     12 C         140.9746  143.3585  162.2131 C.3     1  UNL1        0.1254
     13 C         141.0767  141.7745  166.4239 C.ar    1  UNL1        0.0592
     14 C         141.7228  140.4519  166.7122 C.ar    1  UNL1        0.0153
     15 C         141.7568  139.9240  168.1159 C.ar    1  UNL1        0.0012
     16 C         141.1448  140.7187  169.2311 C.ar    1  UNL1        0.0039
     17 C         140.4987  142.0414  168.9427 C.ar    1  UNL1        0.0727
     18 C         140.4647  142.5693  167.5392 C.ar    1  UNL1        0.0191
     19 C         139.8867  142.8361  170.0580 C.3     1  UNL1        0.4186
     20 F         139.2747  143.6308  171.1733 F       1  UNL1       -0.1659
     21 F         140.8485  143.9551  169.7884 F       1  UNL1       -0.1659
     22 F         138.9249  141.7170  170.3276 F       1  UNL1       -0.1659
     23 C         140.9406  143.8865  160.8094 C.ar    1  UNL1       -0.0015
     24 C         141.4829  143.0576  159.6831 C.ar    1  UNL1       -0.0019
     25 C         141.4490  143.5855  158.2794 C.ar    1  UNL1        0.0100
     26 C         140.8727  144.9423  158.0023 C.ar    1  UNL1        0.0682
     27 C         140.3304  145.7712  159.1287 C.ar    1  UNL1        0.0082
     28 C         140.3643  145.2433  160.5323 C.ar    1  UNL1        0.0055
     29 C         139.8220  146.0722  161.6587 C.3     1  UNL1        0.1634
     30 O         140.7496  146.6130  162.7061 O.3     1  UNL1       -0.3772
     31 H         141.1283  145.8779  163.2132 H       1  UNL1        0.2109
     32 C         140.8388  145.4702  156.5987 C.1     1  UNL1        0.1004
     33 N         140.8050  145.9981  155.1950 N.1     1  UNL1       -0.1908
@<TRIPOS>BOND
     1     1     2    1
     2     2     3   am
     3     3     4    2
     4     3     5   am
     5     5    13    1
     6    13    14   ar
     7    14    15   ar
     8    15    16   ar
     9    16    17   ar
    10    17    19    1
    11    19    20    1
    12    19    21    1
    13    19    22    1
    14    17    18   ar
    15     5     6    1
    16     6     7    2
    17     7     8    1
    18     8     9    2
    19     8    10    1
    20    10    11    1
    21     7    12    1
    22    12    23    1
    23    23    24   ar
    24    24    25   ar
    25    25    26   ar
    26    26    32    1
    27    32    33    3
    28    26    27   ar
    29    27    28   ar
    30    28    29    1
    31    29    30    1
    32    12     2    1
    33    28    23   ar
    34    18    13   ar
    35    11     6    1
    36    30    31    1
@<TRIPOS>MOLECULE
*****
 33 36 0 0 0
SMALL
GASTEIGER

@<TRIPOS>ATOM
      1 C         142.0135  140.5223  161.9380 C.3     1  UNL1        0.1171
      2 N         141.4081  141.3605  163.0249 N.am    1  UNL1       -0.2557
      3 C         141.8504  141.1787  164.4465 C.2     1  UNL1        0.3150
      4 O         142.8982  140.1588  164.7815 O.2     1  UNL1       -0.2516
      5 N         141.2451  142.0168  165.5333 N.am    1  UNL1       -0.2256
      6 C         140.1974  143.0367  165.1984 C.2     1  UNL1        0.0380
      7 C         139.7550  143.2185  163.7767 C.2     1  UNL1        0.0446
      8 C         138.7106  144.2948  163.7501 C.2     1  UNL1        0.1722
      9 O         137.9950  144.7992  162.5321 O.2     1  UNL1       -0.2916
     10 C         138.5075  144.7783  165.1555 C.3     1  UNL1        0.0749
     11 C         139.4264  144.0007  166.0506 C.3     1  UNL1        0.0498
     12 C         140.3604  142.3804  162.6899 C.3     1  UNL1        0.1254
     13 C         141.6874  141.8351  166.9550 C.ar    1  UNL1        0.0592
     14 C         142.9929  142.4137  167.4141 C.ar    1  UNL1        0.0153
     15 C         143.4352  142.2319  168.8359 C.ar    1  UNL1        0.0012
     16 C         142.5721  141.4714  169.7985 C.ar    1  UNL1        0.0039
     17 C         141.2665  140.8928  169.3394 C.ar    1  UNL1        0.0727
     18 C         140.8242  141.0746  167.9177 C.ar    1  UNL1        0.0191
     19 C         140.4034  140.1323  170.3020 C.3     1  UNL1        0.4186
     20 F         139.5402  139.3719  171.2646 F       1  UNL1       -0.1659
     21 F         141.3951  139.0070  170.3022 F       1  UNL1       -0.1659
     22 F         139.4117  141.2577  170.3018 F       1  UNL1       -0.1659
     23 C         139.9181  142.5621  161.2681 C.ar    1  UNL1       -0.0015
     24 C         140.6393  143.5286  160.3760 C.ar    1  UNL1       -0.0019
     25 C         140.1970  143.7103  158.9543 C.ar    1  UNL1        0.0100
     26 C         139.0336  142.9256  158.4246 C.ar    1  UNL1        0.0682
     27 C         138.3124  141.9591  159.3167 C.ar    1  UNL1        0.0082
     28 C         138.7546  141.7774  160.7385 C.ar    1  UNL1        0.0055
     29 C         138.0334  140.8109  161.6305 C.3     1  UNL1        0.1634
     30 O         136.9094  141.2892  162.5010 O.3     1  UNL1       -0.3772
     31 H         137.2560  141.9000  163.1701 H       1  UNL1        0.2109
     32 C         138.5914  143.1074  157.0029 C.1     1  UNL1        0.1004
     33 N         138.1492  143.2891  155.5811 N.1     1  UNL1       -0.1908
@<TRIPOS>BOND
     1     1     2    1
     2     2     3   am
     3     3     4    2
     4     3     5   am
     5     5    13    1
     6    13    14   ar
     7    14    15   ar
     8    15    16   ar
     9    16    17   ar
    10    17    19    1
    11    19    20    1
    12    19    21    1
    13    19    22    1
    14    17    18   ar
    15     5     6    1
    16     6     7    2
    17     7     8    1
    18     8     9    2
    19     8    10    1
    20    10    11    1
    21     7    12    1
    22    12    23    1
    23    23    24   ar
    24    24    25   ar
    25    25    26   ar
    26    26    32    1
    27    32    33    3
    28    26    27   ar
    29    27    28   ar
    30    28    29    1
    31    29    30    1
    32    12     2    1
    33    28    23   ar
    34    18    13   ar
    35    11     6    1
    36    30    31    1
@<TRIPOS>MOLECULE
*****
 33 36 0 0 0
SMALL
GASTEIGER

@<TRIPOS>ATOM
      1 C         139.4319  138.7228  163.7635 C.3     1  UNL1        0.1171
      2 N         140.1670  140.0074  164.0078 N.am    1  UNL1       -0.2557
      3 C         140.5484  140.3992  165.4045 C.2     1  UNL1        0.3150
      4 O         140.1949  139.5066  166.5570 O.2     1  UNL1       -0.2516
      5 N         141.2835  141.6837  165.6488 N.am    1  UNL1       -0.2256
      6 C         141.6370  142.5764  164.4963 C.2     1  UNL1        0.0380
      7 C         141.2555  142.1845  163.0996 C.2     1  UNL1        0.0446
      8 C         141.7354  143.2589  162.1693 C.2     1  UNL1        0.1722
      9 O         141.5667  143.2746  160.6788 O.2     1  UNL1       -0.2916
     10 C         142.4134  144.3147  162.9911 C.3     1  UNL1        0.0749
     11 C         142.3527  143.8930  164.4293 C.3     1  UNL1        0.0498
     12 C         140.5205  140.9000  162.8553 C.3     1  UNL1        0.1254
     13 C         141.6650  142.0756  167.0455 C.ar    1  UNL1        0.0592
     14 C         143.1016  142.0225  167.4735 C.ar    1  UNL1        0.0153
     15 C         143.4831  142.4143  168.8703 C.ar    1  UNL1        0.0012
     16 C         142.4279  142.8594  169.8391 C.ar    1  UNL1        0.0039
     17 C         140.9912  142.9125  169.4110 C.ar    1  UNL1        0.0727
     18 C         140.6097  142.5206  168.0144 C.ar    1  UNL1        0.0191
     19 C         139.9360  143.3575  170.3798 C.3     1  UNL1        0.4186
     20 F         138.8809  143.8025  171.3486 F       1  UNL1       -0.1659
     21 F         139.4981  141.9338  170.5569 F       1  UNL1       -0.1659
     22 F         140.3739  144.7812  170.2028 F       1  UNL1       -0.1659
     23 C         140.1389  140.5081  161.4585 C.ar    1  UNL1       -0.0015
     24 C         141.0633  139.6567  160.6396 C.ar    1  UNL1       -0.0019
     25 C         140.6818  139.2647  159.2428 C.ar    1  UNL1        0.0100
     26 C         139.3760  139.7241  158.6652 C.ar    1  UNL1        0.0682
     27 C         138.4517  140.5755  159.4841 C.ar    1  UNL1        0.0082
     28 C         138.8331  140.9675  160.8809 C.ar    1  UNL1        0.0055
     29 C         137.9088  141.8189  161.6998 C.3     1  UNL1        0.1634
     30 O         136.8189  141.1794  162.5081 O.3     1  UNL1       -0.3772
     31 H         136.1743  140.7666  161.9124 H       1  UNL1        0.2109
     32 C         138.9946  139.3321  157.2684 C.1     1  UNL1        0.1004
     33 N         138.6130  138.9401  155.8717 N.1     1  UNL1       -0.1908
@<TRIPOS>BOND
     1     1     2    1
     2     2     3   am
     3     3     4    2
     4     3     5   am
     5     5    13    1
     6    13    14   ar
     7    14    15   ar
     8    15    16   ar
     9    16    17   ar
    10    17    19    1
    11    19    20    1
    12    19    21    1
    13    19    22    1
    14    17    18   ar
    15     5     6    1
    16     6     7    2
    17     7     8    1
    18     8     9    2
    19     8    10    1
    20    10    11    1
    21     7    12    1
    22    12    23    1
    23    23    24   ar
    24    24    25   ar
    25    25    26   ar
    26    26    32    1
    27    32    33    3
    28    26    27   ar
    29    27    28   ar
    30    28    29    1
    31    29    30    1
    32    12     2    1
    33    28    23   ar
    34    18    13   ar
    35    11     6    1
    36    30    31    1
@<TRIPOS>MOLECULE
*****
 33 36 0 0 0
SMALL
GASTEIGER

@<TRIPOS>ATOM
      1 C         143.3545  144.0761  162.5214 C.3     1  UNL1        0.1171
      2 N         142.1242  143.5299  163.1835 N.am    1  UNL1       -0.2557
      3 C         142.1612  143.1426  164.6321 C.2     1  UNL1        0.3150
      4 O         143.4285  143.3014  165.4188 O.2     1  UNL1       -0.2516
      5 N         140.9310  142.5965  165.2941 N.am    1  UNL1       -0.2256
      6 C         139.6637  142.4377  164.5075 C.2     1  UNL1        0.0380
      7 C         139.6267  142.8251  163.0588 C.2     1  UNL1        0.0446
      8 C         138.2438  142.5577  162.5427 C.2     1  UNL1        0.1722
      9 O         137.7630  142.8003  161.1428 O.2     1  UNL1       -0.2916
     10 C         137.4263  142.0051  163.6725 C.3     1  UNL1        0.0749
     11 C         138.3038  141.9310  164.8867 C.3     1  UNL1        0.0498
     12 C         140.8569  143.3712  162.3968 C.3     1  UNL1        0.1254
     13 C         140.9681  142.2092  166.7428 C.ar    1  UNL1        0.0592
     14 C         140.3374  143.0982  167.7732 C.ar    1  UNL1        0.0153
     15 C         140.3746  142.7108  169.2219 C.ar    1  UNL1        0.0012
     16 C         141.0423  141.4344  169.6401 C.ar    1  UNL1        0.0039
     17 C         141.6730  140.5454  168.6096 C.ar    1  UNL1        0.0727
     18 C         141.6359  140.9327  167.1610 C.ar    1  UNL1        0.0191
     19 C         142.3407  139.2690  169.0278 C.3     1  UNL1        0.4186
     20 F         143.0085  137.9926  169.4460 F       1  UNL1       -0.1659
     21 F         143.1648  139.2895  167.7746 F       1  UNL1       -0.1659
     22 F         141.5167  139.2485  170.2810 F       1  UNL1       -0.1659
     23 C         140.8199  143.7585  160.9481 C.ar    1  UNL1       -0.0015
     24 C         141.3223  142.8059  159.9040 C.ar    1  UNL1       -0.0019
     25 C         141.2853  143.1932  158.4554 C.ar    1  UNL1        0.0100
     26 C         140.7459  144.5331  158.0508 C.ar    1  UNL1        0.0682
     27 C         140.2435  145.4857  159.0949 C.ar    1  UNL1        0.0082
     28 C         140.2805  145.0984  160.5436 C.ar    1  UNL1        0.0055
     29 C         139.7781  146.0511  161.5876 C.3     1  UNL1        0.1634
     30 O         140.7325  146.6505  162.5774 O.3     1  UNL1       -0.3772
     31 H         141.0845  145.9520  163.1510 H       1  UNL1        0.2109
     32 C         140.7090  144.9204  156.6022 C.1     1  UNL1        0.1004
     33 N         140.6720  145.3076  155.1534 N.1     1  UNL1       -0.1908
@<TRIPOS>BOND
     1     1     2    1
     2     2     3   am
     3     3     4    2
     4     3     5   am
     5     5    13    1
     6    13    14   ar
     7    14    15   ar
     8    15    16   ar
     9    16    17   ar
    10    17    19    1
    11    19    20    1
    12    19    21    1
    13    19    22    1
    14    17    18   ar
    15     5     6    1
    16     6     7    2
    17     7     8    1
    18     8     9    2
    19     8    10    1
    20    10    11    1
    21     7    12    1
    22    12    23    1
    23    23    24   ar
    24    24    25   ar
    25    25    26   ar
    26    26    32    1
    27    32    33    3
    28    26    27   ar
    29    27    28   ar
    30    28    29    1
    31    29    30    1
    32    12     2    1
    33    28    23   ar
    34    18    13   ar
    35    11     6    1
    36    30    31    1
@<TRIPOS>MOLECULE
*****
 33 36 0 0 0
SMALL
GASTEIGER

@<TRIPOS>ATOM
      1 C         138.3854  142.1883  162.2325 C.3     1  UNL1        0.1171
      2 N         139.6302  142.3439  163.0551 N.am    1  UNL1       -0.2557
      3 C         139.6595  141.8515  164.4716 C.2     1  UNL1        0.3150
      4 O         138.4441  141.2035  165.0657 O.2     1  UNL1       -0.2516
      5 N         140.9042  142.0071  165.2941 N.am    1  UNL1       -0.2256
      6 C         142.1196  142.6551  164.7000 C.2     1  UNL1        0.0380
      7 C         142.0903  143.1475  163.2835 C.2     1  UNL1        0.0446
      8 C         143.4320  143.7410  162.9711 C.2     1  UNL1        0.1722
      9 O         143.8431  144.3527  161.6646 O.2     1  UNL1       -0.2916
     10 C         144.2906  143.6153  164.1947 C.3     1  UNL1        0.0749
     11 C         143.4795  142.9442  165.2632 C.3     1  UNL1        0.0498
     12 C         140.8456  142.9920  162.4609 C.3     1  UNL1        0.1254
     13 C         140.9335  141.5146  166.7106 C.ar    1  UNL1        0.0592
     14 C         141.5794  140.2001  167.0345 C.ar    1  UNL1        0.0153
     15 C         141.6086  139.7078  168.4511 C.ar    1  UNL1        0.0012
     16 C         140.9920  140.5298  169.5438 C.ar    1  UNL1        0.0039
     17 C         140.3461  141.8444  169.2199 C.ar    1  UNL1        0.0727
     18 C         140.3169  142.3368  167.8034 C.ar    1  UNL1        0.0191
     19 C         139.7296  142.6664  170.3126 C.3     1  UNL1        0.4186
     20 F         139.1130  143.4885  171.4053 F       1  UNL1       -0.1659
     21 F         138.6417  141.6454  170.4669 F       1  UNL1       -0.1659
     22 F         140.8175  143.6875  170.1583 F       1  UNL1       -0.1659
     23 C         140.8162  143.4844  161.0443 C.ar    1  UNL1       -0.0015
     24 C         141.2855  142.5950  159.9314 C.ar    1  UNL1       -0.0019
     25 C         141.2561  143.0873  158.5147 C.ar    1  UNL1        0.0100
     26 C         140.7575  144.4690  158.2112 C.ar    1  UNL1        0.0682
     27 C         140.2883  145.3585  159.3242 C.ar    1  UNL1        0.0082
     28 C         140.3176  144.8661  160.7408 C.ar    1  UNL1        0.0055
     29 C         139.8484  145.7555  161.8538 C.3     1  UNL1        0.1634
     30 O         140.8448  146.3848  162.7818 O.3     1  UNL1       -0.3772
     31 H         141.2847  145.6934  163.3009 H       1  UNL1        0.2109
     32 C         140.7282  144.9614  156.7946 C.1     1  UNL1        0.1004
     33 N         140.6987  145.4538  155.3780 N.1     1  UNL1       -0.1908
@<TRIPOS>BOND
     1     1     2    1
     2     2     3   am
     3     3     4    2
     4     3     5   am
     5     5    13    1
     6    13    14   ar
     7    14    15   ar
     8    15    16   ar
     9    16    17   ar
    10    17    19    1
    11    19    20    1
    12    19    21    1
    13    19    22    1
    14    17    18   ar
    15     5     6    1
    16     6     7    2
    17     7     8    1
    18     8     9    2
    19     8    10    1
    20    10    11    1
    21     7    12    1
    22    12    23    1
    23    23    24   ar
    24    24    25   ar
    25    25    26   ar
    26    26    32    1
    27    32    33    3
    28    26    27   ar
    29    27    28   ar
    30    28    29    1
    31    29    30    1
    32    12     2    1
    33    28    23   ar
    34    18    13   ar
    35    11     6    1
    36    30    31    1
@<TRIPOS>MOLECULE
*****
 33 36 0 0 0
SMALL
GASTEIGER

@<TRIPOS>ATOM
      1 C         141.2373  139.5214  162.2348 C.3     1  UNL1        0.1171
      2 N         140.7650  140.5672  163.2009 N.am    1  UNL1       -0.2557
      3 C         140.9952  140.3877  164.6722 C.2     1  UNL1        0.3150
      4 O         141.6977  139.1624  165.1774 O.2     1  UNL1       -0.2516
      5 N         140.5230  141.4335  165.6383 N.am    1  UNL1       -0.2256
      6 C         139.8205  142.6587  165.1331 C.2     1  UNL1        0.0380
      7 C         139.5903  142.8383  163.6618 C.2     1  UNL1        0.0446
      8 C         138.8741  144.1407  163.4601 C.2     1  UNL1        0.1722
      9 O         138.4456  144.7166  162.1430 O.2     1  UNL1       -0.2916
     10 C         138.6617  144.7662  164.8069 C.3     1  UNL1        0.0749
     11 C         139.2466  143.8503  165.8408 C.3     1  UNL1        0.0498
     12 C         140.0625  141.7925  162.6956 C.3     1  UNL1        0.1254
     13 C         140.7532  141.2539  167.1096 C.ar    1  UNL1        0.0592
     14 C         139.8582  140.3496  167.9039 C.ar    1  UNL1        0.0153
     15 C         140.0885  140.1701  169.3753 C.ar    1  UNL1        0.0012
     16 C         141.2138  140.8950  170.0523 C.ar    1  UNL1        0.0039
     17 C         142.1089  141.7993  169.2578 C.ar    1  UNL1        0.0727
     18 C         141.8786  141.9788  167.7866 C.ar    1  UNL1        0.0191
     19 C         143.2342  142.5242  169.9348 C.3     1  UNL1        0.4186
     20 F         144.3595  143.2490  170.6117 F       1  UNL1       -0.1659
     21 F         144.0037  142.5320  168.6472 F       1  UNL1       -0.1659
     22 F         142.4646  142.5164  171.2223 F       1  UNL1       -0.1659
     23 C         139.8323  141.9720  161.2243 C.ar    1  UNL1       -0.0015
     24 C         140.8034  142.7694  160.4050 C.ar    1  UNL1       -0.0019
     25 C         140.5732  142.9489  158.9337 C.ar    1  UNL1        0.0100
     26 C         139.3720  142.3309  158.2817 C.ar    1  UNL1        0.0682
     27 C         138.4010  141.5335  159.1009 C.ar    1  UNL1        0.0082
     28 C         138.6311  141.3540  160.5722 C.ar    1  UNL1        0.0055
     29 C         137.6600  140.5566  161.3915 C.3     1  UNL1        0.1634
     30 O         136.8306  141.2345  162.4414 O.3     1  UNL1       -0.3772
     31 H         137.4084  141.5623  163.1482 H       1  UNL1        0.2109
     32 C         139.1419  142.5104  156.8103 C.1     1  UNL1        0.1004
     33 N         138.9119  142.6900  155.3390 N.1     1  UNL1       -0.1908
@<TRIPOS>BOND
     1     1     2    1
     2     2     3   am
     3     3     4    2
     4     3     5   am
     5     5    13    1
     6    13    14   ar
     7    14    15   ar
     8    15    16   ar
     9    16    17   ar
    10    17    19    1
    11    19    20    1
    12    19    21    1
    13    19    22    1
    14    17    18   ar
    15     5     6    1
    16     6     7    2
    17     7     8    1
    18     8     9    2
    19     8    10    1
    20    10    11    1
    21     7    12    1
    22    12    23    1
    23    23    24   ar
    24    24    25   ar
    25    25    26   ar
    26    26    32    1
    27    32    33    3
    28    26    27   ar
    29    27    28   ar
    30    28    29    1
    31    29    30    1
    32    12     2    1
    33    28    23   ar
    34    18    13   ar
    35    11     6    1
    36    30    31    1
@<TRIPOS>MOLECULE
*****
 33 36 0 0 0
SMALL
GASTEIGER

@<TRIPOS>ATOM
      1 C         143.8190  143.5939  162.0851 C.3     1  UNL1        0.1171
      2 N         142.7220  143.0921  162.9767 N.am    1  UNL1       -0.2557
      3 C         143.0469  142.5711  164.3451 C.2     1  UNL1        0.3150
      4 O         144.4690  142.5519  164.8222 O.2     1  UNL1       -0.2516
      5 N         141.9500  142.0693  165.2366 N.am    1  UNL1       -0.2256
      6 C         140.5280  142.0885  164.7596 C.2     1  UNL1        0.0380
      7 C         140.2030  142.6095  163.3910 C.2     1  UNL1        0.0446
      8 C         138.7194  142.5056  163.1957 C.2     1  UNL1        0.1722
      9 O         137.9609  142.9150  161.9681 O.2     1  UNL1       -0.2916
     10 C         138.1275  141.9203  164.4435 C.3     1  UNL1        0.0749
     11 C         139.2452  141.6625  165.4101 C.3     1  UNL1        0.0498
     12 C         141.2999  143.1113  162.4995 C.3     1  UNL1        0.1254
     13 C         142.2750  141.5483  166.6052 C.ar    1  UNL1        0.0592
     14 C         142.2527  140.0721  166.8705 C.ar    1  UNL1        0.0153
     15 C         142.5777  139.5512  168.2392 C.ar    1  UNL1        0.0012
     16 C         142.9250  140.5063  169.3423 C.ar    1  UNL1        0.0039
     17 C         142.9473  141.9826  169.0769 C.ar    1  UNL1        0.0727
     18 C         142.6223  142.5035  167.7084 C.ar    1  UNL1        0.0191
     19 C         143.2946  142.9377  170.1801 C.3     1  UNL1        0.4186
     20 F         143.6419  143.8928  171.2833 F       1  UNL1       -0.1659
     21 F         144.7354  142.5339  170.0761 F       1  UNL1       -0.1659
     22 F         141.8537  143.3415  170.2841 F       1  UNL1       -0.1659
     23 C         140.9750  143.6324  161.1309 C.ar    1  UNL1       -0.0015
     24 C         140.6881  145.0913  160.9325 C.ar    1  UNL1       -0.0019
     25 C         140.3632  145.6124  159.5640 C.ar    1  UNL1        0.0100
     26 C         140.3252  144.6746  158.3940 C.ar    1  UNL1        0.0682
     27 C         140.6121  143.2157  158.5924 C.ar    1  UNL1        0.0082
     28 C         140.9370  142.6946  159.9609 C.ar    1  UNL1        0.0055
     29 C         141.2239  141.2357  160.1593 C.3     1  UNL1        0.1634
     30 O         140.1363  140.3142  160.6262 O.3     1  UNL1       -0.3772
     31 H         139.8760  140.5528  161.5296 H       1  UNL1        0.2109
     32 C         140.0003  145.1957  157.0254 C.1     1  UNL1        0.1004
     33 N         139.6754  145.7169  155.6569 N.1     1  UNL1       -0.1908
@<TRIPOS>BOND
     1     1     2    1
     2     2     3   am
     3     3     4    2
     4     3     5   am
     5     5    13    1
     6    13    14   ar
     7    14    15   ar
     8    15    16   ar
     9    16    17   ar
    10    17    19    1
    11    19    20    1
    12    19    21    1
    13    19    22    1
    14    17    18   ar
    15     5     6    1
    16     6     7    2
    17     7     8    1
    18     8     9    2
    19     8    10    1
    20    10    11    1
    21     7    12    1
    22    12    23    1
    23    23    24   ar
    24    24    25   ar
    25    25    26   ar
    26    26    32    1
    27    32    33    3
    28    26    27   ar
    29    27    28   ar
    30    28    29    1
    31    29    30    1
    32    12     2    1
    33    28    23   ar
    34    18    13   ar
    35    11     6    1
    36    30    31    1
@<TRIPOS>MOLECULE
*****
 33 36 0 0 0
SMALL
GASTEIGER

@<TRIPOS>ATOM
      1 C         142.0367  138.1078  163.7634 C.3     1  UNL1        0.1171
      2 N         141.6295  139.5002  164.1451 N.am    1  UNL1       -0.2557
      3 C         141.9337  140.0206  165.5185 C.2     1  UNL1        0.3150
      4 O         142.6452  139.1487  166.5105 O.2     1  UNL1       -0.2516
      5 N         141.5266  141.4129  165.9002 N.am    1  UNL1       -0.2256
      6 C         140.8152  142.2848  164.9084 C.2     1  UNL1        0.0380
      7 C         140.5110  141.7643  163.5349 C.2     1  UNL1        0.0446
      8 C         139.8028  142.8467  162.7753 C.2     1  UNL1        0.1722
      9 O         139.3139  142.7557  161.3602 O.2     1  UNL1       -0.2916
     10 C         139.6694  144.0362  163.6795 C.3     1  UNL1        0.0749
     11 C         140.2951  143.6889  164.9978 C.3     1  UNL1        0.0498
     12 C         140.9181  140.3720  163.1532 C.3     1  UNL1        0.1254
     13 C         141.8309  141.9333  167.2738 C.ar    1  UNL1        0.0592
     14 C         143.2542  142.0568  167.7308 C.ar    1  UNL1        0.0153
     15 C         143.5584  142.5772  169.1043 C.ar    1  UNL1        0.0012
     16 C         142.4393  142.9742  170.0209 C.ar    1  UNL1        0.0039
     17 C         141.0160  142.8508  169.5638 C.ar    1  UNL1        0.0727
     18 C         140.7117  142.3304  168.1903 C.ar    1  UNL1        0.0191
     19 C         139.8969  143.2478  170.4803 C.3     1  UNL1        0.4186
     20 F         138.7778  143.6448  171.3968 F       1  UNL1       -0.1659
     21 F         140.2372  144.6934  170.2696 F       1  UNL1       -0.1659
     22 F         139.5566  141.8022  170.6910 F       1  UNL1       -0.1659
     23 C         140.6139  139.8515  161.7796 C.ar    1  UNL1       -0.0015
     24 C         141.5154  140.1946  160.6309 C.ar    1  UNL1       -0.0019
     25 C         141.2112  139.6741  159.2574 C.ar    1  UNL1        0.0100
     26 C         140.0056  138.8106  159.0326 C.ar    1  UNL1        0.0682
     27 C         139.1040  138.4675  160.1813 C.ar    1  UNL1        0.0082
     28 C         139.4082  138.9879  161.5549 C.ar    1  UNL1        0.0055
     29 C         138.5067  138.6448  162.7036 C.3     1  UNL1        0.1634
     30 O         138.4608  137.2400  163.2273 O.3     1  UNL1       -0.3772
     31 H         138.0897  136.6541  162.5491 H       1  UNL1        0.2109
     32 C         139.7014  138.2901  157.6591 C.1     1  UNL1        0.1004
     33 N         139.3972  137.7696  156.2856 N.1     1  UNL1       -0.1908
@<TRIPOS>BOND
     1     1     2    1
     2     2     3   am
     3     3     4    2
     4     3     5   am
     5     5    13    1
     6    13    14   ar
     7    14    15   ar
     8    15    16   ar
     9    16    17   ar
    10    17    19    1
    11    19    20    1
    12    19    21    1
    13    19    22    1
    14    17    18   ar
    15     5     6    1
    16     6     7    2
    17     7     8    1
    18     8     9    2
    19     8    10    1
    20    10    11    1
    21     7    12    1
    22    12    23    1
    23    23    24   ar
    24    24    25   ar
    25    25    26   ar
    26    26    32    1
    27    32    33    3
    28    26    27   ar
    29    27    28   ar
    30    28    29    1
    31    29    30    1
    32    12     2    1
    33    28    23   ar
    34    18    13   ar
    35    11     6    1
    36    30    31    1
