@<TRIPOS>MOLECULE
*****
 44 48 0 0 0
SMALL
GASTEIGER

@<TRIPOS>ATOM
      1 C         142.7361  137.7418  157.2272 C.ar    1  UNL1        0.1534
      2 N         142.2606  137.6155  158.6442 N.ar    1  UNL1       -0.2279
      3 C         142.7126  138.8328  159.3950 C.ar    1  UNL1        0.1036
      4 C         143.4675  139.7115  158.4421 C.ar    1  UNL1        0.1142
      5 C         144.1435  141.0385  158.6212 C.ar    1  UNL1        0.1432
      6 N         144.1289  141.7127  159.9611 N.pl3   1  UNL1       -0.3414
      7 N         144.8340  141.6911  157.4606 N.ar    1  UNL1       -0.2265
      8 C         144.8486  141.0168  156.1208 C.ar    1  UNL1        0.1193
      9 C         144.1726  139.6899  155.9416 C.ar    1  UNL1        0.1021
     10 N         143.4820  139.0372  157.1022 N.ar    1  UNL1       -0.2865
     11 H         143.6757  141.2844  160.7228 H       1  UNL1        0.1438
     12 H         144.5726  142.5837  160.0787 H       1  UNL1        0.1438
     13 C         142.2914  132.8151  155.6367 C.2     1  UNL1        0.2253
     14 O         142.5289  132.3407  157.0398 O.2     1  UNL1       -0.2749
     15 N         142.2838  134.2839  155.3328 N.am    1  UNL1       -0.2740
     16 C         142.0463  134.7583  153.9297 C.3     1  UNL1        0.1255
     17 C         142.0387  136.2271  153.6259 C.3     1  UNL1        0.1641
     18 O         142.2687  137.2216  154.7250 O.3     1  UNL1       -0.3451
     19 C         142.5062  136.7473  156.1280 C.3     1  UNL1        0.1913
     20 C         142.5138  135.2784  156.4319 C.3     1  UNL1        0.1307
     21 C         143.2199  131.3124  153.7314 C.3     1  UNL1        0.0096
     22 C         142.0614  131.8206  154.5376 C.3     1  UNL1        0.0767
     23 C         140.6731  131.3343  154.2445 C.3     1  UNL1        0.0096
     24 C         142.4549  139.1209  160.8444 C.ar    1  UNL1        0.0467
     25 C         141.3516  140.0575  161.2383 C.ar    1  UNL1        0.0039
     26 C         141.0939  140.3456  162.6876 C.ar    1  UNL1        0.0047
     27 C         141.9397  139.6971  163.7431 C.ar    1  UNL1        0.0559
     28 C         143.0432  138.7605  163.3492 C.ar    1  UNL1        0.0342
     29 C         143.3008  138.4724  161.8999 C.ar    1  UNL1        0.1417
     30 F         144.4042  137.5357  161.5060 F       1  UNL1       -0.2041
     31 C         141.6821  139.9853  165.1925 C.2     1  UNL1        0.2506
     32 O         140.2835  139.9274  165.7315 O.2     1  UNL1       -0.2698
     33 N         142.8230  140.3313  166.1027 N.am    1  UNL1       -0.2658
     34 H         143.7409  140.3693  165.7489 H       1  UNL1        0.1566
     35 C         142.5653  140.6194  167.5521 C.ar    1  UNL1        0.1343
     36 C         142.0029  141.9475  167.9642 C.ar    1  UNL1        0.0383
     37 C         141.7451  142.2357  169.4135 C.ar    1  UNL1        0.0757
     38 C         142.0497  141.1957  170.4506 C.ar    1  UNL1        0.0246
     39 C         142.6121  139.8676  170.0385 C.ar    1  UNL1        0.1003
     40 N         142.8698  139.5794  168.5892 N.ar    1  UNL1       -0.2290
     41 C         141.1828  143.5638  169.8257 C.3     1  UNL1        0.4187
     42 F         140.6205  144.8919  170.2378 F       1  UNL1       -0.1659
     43 F         142.4688  143.8914  170.5248 F       1  UNL1       -0.1659
     44 F         139.8968  143.2362  169.1265 F       1  UNL1       -0.1659
@<TRIPOS>BOND
     1    21    22    1
     2    22    23    1
     3    22    13    1
     4    13    14    2
     5    13    15   am
     6    15    16    1
     7    16    17    1
     8    17    18    1
     9    18    19    1
    10    19     1    1
    11     1     2   ar
    12     2     3   ar
    13     3    24    1
    14    24    25   ar
    15    25    26   ar
    16    26    27   ar
    17    27    31    1
    18    31    32    2
    19    31    33   am
    20    33    35    1
    21    35    36   ar
    22    36    37   ar
    23    37    41    1
    24    41    42    1
    25    41    43    1
    26    41    44    1
    27    37    38   ar
    28    38    39   ar
    29    39    40   ar
    30    27    28   ar
    31    28    29   ar
    32    29    30    1
    33     3     4   ar
    34     4     5   ar
    35     5     6    1
    36     5     7   ar
    37     7     8   ar
    38     8     9   ar
    39     9    10   ar
    40    19    20    1
    41    20    15    1
    42    10     1   ar
    43    29    24   ar
    44    10     4   ar
    45    40    35   ar
    46    33    34    1
    47     6    11    1
    48     6    12    1
@<TRIPOS>MOLECULE
*****
 44 48 0 0 0
SMALL
GASTEIGER

@<TRIPOS>ATOM
      1 C         140.7289  141.8219  163.1109 C.ar    1  UNL1        0.1534
      2 N         141.7126  141.3277  162.0921 N.ar    1  UNL1       -0.2279
      3 C         141.8709  142.3915  161.0465 C.ar    1  UNL1        0.1036
      4 C         140.9850  143.5432  161.4191 C.ar    1  UNL1        0.1142
      5 C         140.7299  144.8669  160.7614 C.ar    1  UNL1        0.1432
      6 N         141.4357  145.2189  159.4855 N.pl3   1  UNL1       -0.3414
      7 N         139.7690  145.8387  161.3796 N.ar    1  UNL1       -0.2265
      8 C         139.0632  145.4867  162.6556 C.ar    1  UNL1        0.1193
      9 C         139.3183  144.1629  163.3132 C.ar    1  UNL1        0.1021
     10 N         140.2793  143.1912  162.6950 N.ar    1  UNL1       -0.2865
     11 H         142.0664  144.5811  159.0797 H       1  UNL1        0.1438
     12 H         141.2682  146.0877  159.0538 H       1  UNL1        0.1438
     13 C         140.7238  141.2195  168.2720 C.2     1  UNL1        0.2253
     14 O         141.6298  142.4068  168.4115 O.2     1  UNL1       -0.2749
     15 N         140.2721  140.7764  166.9120 N.am    1  UNL1       -0.2740
     16 C         139.3661  139.5891  166.7725 C.3     1  UNL1        0.1255
     17 C         138.9144  139.1461  165.4125 C.3     1  UNL1        0.1641
     18 O         139.3687  139.8904  164.1920 O.3     1  UNL1       -0.3451
     19 C         140.2746  141.0776  164.3314 C.3     1  UNL1        0.1913
     20 C         140.7264  141.5207  165.6915 C.3     1  UNL1        0.1307
     21 C         141.2133  139.5490  170.2008 C.3     1  UNL1        0.0096
     22 C         140.2695  140.4752  169.4925 C.3     1  UNL1        0.0767
     23 C         138.8715  140.6570  170.0048 C.3     1  UNL1        0.0096
     24 C         142.7591  142.3167  159.8400 C.ar    1  UNL1        0.0467
     25 C         142.1965  141.8785  158.5204 C.ar    1  UNL1        0.0039
     26 C         143.0847  141.8037  157.3140 C.ar    1  UNL1        0.0047
     27 C         144.5356  142.1672  157.4271 C.ar    1  UNL1        0.0559
     28 C         145.0983  142.6054  158.7467 C.ar    1  UNL1        0.0342
     29 C         144.2101  142.6802  159.9532 C.ar    1  UNL1        0.1417
     30 F         144.7727  143.1184  161.2728 F       1  UNL1       -0.2041
     31 C         145.4238  142.0924  156.2207 C.2     1  UNL1        0.2506
     32 O         145.1022  141.1360  155.1108 O.2     1  UNL1       -0.2698
     33 N         146.6335  142.9741  156.1241 N.am    1  UNL1       -0.2658
     34 H         146.8445  143.6018  156.8526 H       1  UNL1        0.1566
     35 C         147.5217  142.8992  154.9176 C.ar    1  UNL1        0.1343
     36 C         148.7370  142.0202  154.9344 C.ar    1  UNL1        0.0383
     37 C         149.6252  141.9453  153.7280 C.ar    1  UNL1        0.0757
     38 C         149.2980  142.7495  152.5048 C.ar    1  UNL1        0.0246
     39 C         148.0827  143.6285  152.4880 C.ar    1  UNL1        0.1003
     40 N         147.1945  143.7034  153.6944 N.ar    1  UNL1       -0.2290
     41 C         150.8405  141.0663  153.7448 C.3     1  UNL1        0.4187
     42 F         152.0559  140.1873  153.7616 F       1  UNL1       -0.1659
     43 F         151.3487  141.7921  154.9552 F       1  UNL1       -0.1659
     44 F         150.3324  140.3406  152.5344 F       1  UNL1       -0.1659
@<TRIPOS>BOND
     1    21    22    1
     2    22    23    1
     3    22    13    1
     4    13    14    2
     5    13    15   am
     6    15    16    1
     7    16    17    1
     8    17    18    1
     9    18    19    1
    10    19     1    1
    11     1     2   ar
    12     2     3   ar
    13     3    24    1
    14    24    25   ar
    15    25    26   ar
    16    26    27   ar
    17    27    31    1
    18    31    32    2
    19    31    33   am
    20    33    35    1
    21    35    36   ar
    22    36    37   ar
    23    37    41    1
    24    41    42    1
    25    41    43    1
    26    41    44    1
    27    37    38   ar
    28    38    39   ar
    29    39    40   ar
    30    27    28   ar
    31    28    29   ar
    32    29    30    1
    33     3     4   ar
    34     4     5   ar
    35     5     6    1
    36     5     7   ar
    37     7     8   ar
    38     8     9   ar
    39     9    10   ar
    40    19    20    1
    41    20    15    1
    42    10     1   ar
    43    29    24   ar
    44    10     4   ar
    45    40    35   ar
    46    33    34    1
    47     6    11    1
    48     6    12    1
@<TRIPOS>MOLECULE
*****
 44 48 0 0 0
SMALL
GASTEIGER

@<TRIPOS>ATOM
      1 C         142.8194  137.7596  156.6639 C.ar    1  UNL1        0.1534
      2 N         142.3242  137.9047  158.0724 N.ar    1  UNL1       -0.2279
      3 C         142.8825  139.1800  158.6308 C.ar    1  UNL1        0.1036
      4 C         143.7227  139.8231  157.5675 C.ar    1  UNL1        0.1142
      5 C         144.5182  141.0946  157.5492 C.ar    1  UNL1        0.1432
      6 N         144.5572  141.9725  158.7648 N.pl3   1  UNL1       -0.3414
      7 N         145.2747  141.4882  156.3152 N.ar    1  UNL1       -0.2265
      8 C         145.2357  140.6103  155.0996 C.ar    1  UNL1        0.1193
      9 C         144.4402  139.3388  155.1179 C.ar    1  UNL1        0.1021
     10 N         143.6837  138.9452  156.3519 N.ar    1  UNL1       -0.2865
     11 H         144.0606  141.7142  159.5747 H       1  UNL1        0.1438
     12 H         145.0793  142.8071  158.7528 H       1  UNL1        0.1438
     13 C         142.2770  132.6660  155.7916 C.2     1  UNL1        0.2253
     14 O         142.6337  132.3832  157.2209 O.2     1  UNL1       -0.2749
     15 N         142.2342  134.0807  155.2950 N.am    1  UNL1       -0.2740
     16 C         141.8775  134.3635  153.8658 C.3     1  UNL1        0.1255
     17 C         141.8347  135.7782  153.3693 C.3     1  UNL1        0.1641
     18 O         142.1487  136.9103  154.3020 O.3     1  UNL1       -0.3451
     19 C         142.5054  136.6276  155.7312 C.3     1  UNL1        0.1913
     20 C         142.5482  135.2127  156.2278 C.3     1  UNL1        0.1307
     21 C         143.0698  130.8429  154.1188 C.3     1  UNL1        0.0096
     22 C         141.9630  131.5340  154.8589 C.3     1  UNL1        0.0767
     23 C         140.5423  131.0930  154.6662 C.3     1  UNL1        0.0096
     24 C         142.6427  139.7179  160.0104 C.ar    1  UNL1        0.0467
     25 C         141.5906  140.7630  160.2356 C.ar    1  UNL1        0.0039
     26 C         141.3508  141.3008  161.6152 C.ar    1  UNL1        0.0047
     27 C         142.1632  140.7936  162.7696 C.ar    1  UNL1        0.0559
     28 C         143.2154  139.7485  162.5445 C.ar    1  UNL1        0.0342
     29 C         143.4552  139.2106  161.1649 C.ar    1  UNL1        0.1417
     30 F         144.5073  138.1655  160.9398 F       1  UNL1       -0.2041
     31 C         141.9234  141.3315  164.1492 C.2     1  UNL1        0.2506
     32 O         141.4877  142.7549  164.3339 O.2     1  UNL1       -0.2698
     33 N         142.1193  140.4460  165.3439 N.am    1  UNL1       -0.2658
     34 H         142.4052  139.5117  165.2227 H       1  UNL1        0.1566
     35 C         141.8794  140.9839  166.7235 C.ar    1  UNL1        0.1343
     36 C         140.6310  140.6117  167.4671 C.ar    1  UNL1        0.0383
     37 C         140.3912  141.1496  168.8466 C.ar    1  UNL1        0.0757
     38 C         141.3997  142.0598  169.4825 C.ar    1  UNL1        0.0246
     39 C         142.6481  142.4320  168.7389 C.ar    1  UNL1        0.1003
     40 N         142.8880  141.8941  167.3594 N.ar    1  UNL1       -0.2290
     41 C         139.1428  140.7773  169.5902 C.3     1  UNL1        0.4187
     42 F         137.8944  140.4050  170.3338 F       1  UNL1       -0.1659
     43 F         139.3161  141.9726  170.4797 F       1  UNL1       -0.1659
     44 F         138.9694  139.5820  168.7007 F       1  UNL1       -0.1659
@<TRIPOS>BOND
     1    21    22    1
     2    22    23    1
     3    22    13    1
     4    13    14    2
     5    13    15   am
     6    15    16    1
     7    16    17    1
     8    17    18    1
     9    18    19    1
    10    19     1    1
    11     1     2   ar
    12     2     3   ar
    13     3    24    1
    14    24    25   ar
    15    25    26   ar
    16    26    27   ar
    17    27    31    1
    18    31    32    2
    19    31    33   am
    20    33    35    1
    21    35    36   ar
    22    36    37   ar
    23    37    41    1
    24    41    42    1
    25    41    43    1
    26    41    44    1
    27    37    38   ar
    28    38    39   ar
    29    39    40   ar
    30    27    28   ar
    31    28    29   ar
    32    29    30    1
    33     3     4   ar
    34     4     5   ar
    35     5     6    1
    36     5     7   ar
    37     7     8   ar
    38     8     9   ar
    39     9    10   ar
    40    19    20    1
    41    20    15    1
    42    10     1   ar
    43    29    24   ar
    44    10     4   ar
    45    40    35   ar
    46    33    34    1
    47     6    11    1
    48     6    12    1
@<TRIPOS>MOLECULE
*****
 44 48 0 0 0
SMALL
GASTEIGER

@<TRIPOS>ATOM
      1 C         140.9097  141.2553  163.8809 C.ar    1  UNL1        0.1534
      2 N         142.0802  140.9616  162.9901 N.ar    1  UNL1       -0.2279
      3 C         141.7765  141.5134  161.6288 C.ar    1  UNL1        0.1036
      4 C         140.4183  142.1481  161.6782 C.ar    1  UNL1        0.1142
      5 C         139.6002  142.8507  160.6356 C.ar    1  UNL1        0.1432
      6 N         140.1360  143.0102  159.2436 N.pl3   1  UNL1       -0.3414
      7 N         138.2464  143.3937  160.9849 N.ar    1  UNL1       -0.2265
      8 C         137.7106  143.2342  162.3768 C.ar    1  UNL1        0.1193
      9 C         138.5287  142.5316  163.4195 C.ar    1  UNL1        0.1021
     10 N         139.8826  141.9886  163.0701 N.ar    1  UNL1       -0.2865
     11 H         141.0246  142.6537  159.0144 H       1  UNL1        0.1438
     12 H         139.5990  143.4713  158.5593 H       1  UNL1        0.1438
     13 C         142.5832  141.6418  168.7850 C.2     1  UNL1        0.2253
     14 O         143.6640  142.5828  168.3420 O.2     1  UNL1       -0.2749
     15 N         141.6244  141.0746  167.7805 N.am    1  UNL1       -0.2740
     16 C         140.5436  140.1336  168.2235 C.3     1  UNL1        0.1255
     17 C         139.5848  139.5665  167.2190 C.3     1  UNL1        0.1641
     18 O         139.7068  139.9404  165.7715 O.3     1  UNL1       -0.3451
     19 C         140.7876  140.8814  165.3284 C.3     1  UNL1        0.1913
     20 C         141.7464  141.4486  166.3330 C.3     1  UNL1        0.1307
     21 C         143.0790  139.9960  170.7333 C.3     1  UNL1        0.0096
     22 C         142.4611  141.2679  170.2325 C.3     1  UNL1        0.0767
     23 C         141.7212  142.1657  171.1793 C.3     1  UNL1        0.0096
     24 C         142.6736  141.4429  160.4286 C.ar    1  UNL1        0.0467
     25 C         143.5967  142.5826  160.1142 C.ar    1  UNL1        0.0039
     26 C         144.4937  142.5120  158.9140 C.ar    1  UNL1        0.0047
     27 C         144.4677  141.3018  158.0283 C.ar    1  UNL1        0.0559
     28 C         143.5446  140.1620  158.3427 C.ar    1  UNL1        0.0342
     29 C         142.6475  140.2325  159.5428 C.ar    1  UNL1        0.1417
     30 F         141.7244  139.0928  159.8572 F       1  UNL1       -0.2041
     31 C         145.3647  141.2312  156.8281 C.2     1  UNL1        0.2506
     32 O         145.5527  139.9290  156.1079 O.2     1  UNL1       -0.2698
     33 N         146.0737  142.4629  156.3483 N.am    1  UNL1       -0.2658
     34 H         145.9503  143.3176  156.8211 H       1  UNL1        0.1566
     35 C         146.9708  142.3923  155.1481 C.ar    1  UNL1        0.1343
     36 C         148.4549  142.2693  155.3274 C.ar    1  UNL1        0.0383
     37 C         149.3520  142.1987  154.1273 C.ar    1  UNL1        0.0757
     38 C         148.7649  142.2511  152.7480 C.ar    1  UNL1        0.0246
     39 C         147.2808  142.3741  152.5687 C.ar    1  UNL1        0.1003
     40 N         146.3837  142.4447  153.7688 N.ar    1  UNL1       -0.2290
     41 C         150.8362  142.0757  154.3065 C.3     1  UNL1        0.4187
     42 F         152.3203  141.9527  154.4858 F       1  UNL1       -0.1659
     43 F         151.0268  143.4066  153.6415 F       1  UNL1       -0.1659
     44 F         150.6456  140.7447  154.9715 F       1  UNL1       -0.1659
@<TRIPOS>BOND
     1    21    22    1
     2    22    23    1
     3    22    13    1
     4    13    14    2
     5    13    15   am
     6    15    16    1
     7    16    17    1
     8    17    18    1
     9    18    19    1
    10    19     1    1
    11     1     2   ar
    12     2     3   ar
    13     3    24    1
    14    24    25   ar
    15    25    26   ar
    16    26    27   ar
    17    27    31    1
    18    31    32    2
    19    31    33   am
    20    33    35    1
    21    35    36   ar
    22    36    37   ar
    23    37    41    1
    24    41    42    1
    25    41    43    1
    26    41    44    1
    27    37    38   ar
    28    38    39   ar
    29    39    40   ar
    30    27    28   ar
    31    28    29   ar
    32    29    30    1
    33     3     4   ar
    34     4     5   ar
    35     5     6    1
    36     5     7   ar
    37     7     8   ar
    38     8     9   ar
    39     9    10   ar
    40    19    20    1
    41    20    15    1
    42    10     1   ar
    43    29    24   ar
    44    10     4   ar
    45    40    35   ar
    46    33    34    1
    47     6    11    1
    48     6    12    1
@<TRIPOS>MOLECULE
*****
 44 48 0 0 0
SMALL
GASTEIGER

@<TRIPOS>ATOM
      1 C         144.1052  140.4059  156.9523 C.ar    1  UNL1        0.1534
      2 N         144.3887  140.8677  158.3510 N.ar    1  UNL1       -0.2279
      3 C         143.3617  140.2570  159.2579 C.ar    1  UNL1        0.1036
      4 C         142.4435  139.4177  158.4197 C.ar    1  UNL1        0.1142
      5 C         141.2484  138.5816  158.7698 C.ar    1  UNL1        0.1432
      6 N         140.7890  138.4896  160.1947 N.pl3   1  UNL1       -0.3414
      7 N         140.5128  137.8376  157.6950 N.ar    1  UNL1       -0.2265
      8 C         140.9723  137.9296  156.2701 C.ar    1  UNL1        0.1193
      9 C         142.1674  138.7657  155.9200 C.ar    1  UNL1        0.1021
     10 N         142.9030  139.5098  156.9947 N.ar    1  UNL1       -0.2865
     11 H         141.2718  138.9780  160.9002 H       1  UNL1        0.1438
     12 H         140.0046  137.9408  160.4246 H       1  UNL1        0.1438
     13 C         148.5710  141.8652  154.7328 C.2     1  UNL1        0.2253
     14 O         149.2410  141.8560  156.0748 O.2     1  UNL1       -0.2749
     15 N         147.1196  141.5050  154.6166 N.am    1  UNL1       -0.2740
     16 C         146.4496  141.5142  153.2746 C.3     1  UNL1        0.1255
     17 C         144.9981  141.1540  153.1585 C.3     1  UNL1        0.1641
     18 O         144.2167  140.7846  154.3844 O.3     1  UNL1       -0.3451
     19 C         144.8866  140.7753  155.7264 C.3     1  UNL1        0.1913
     20 C         146.3381  141.1356  155.8425 C.3     1  UNL1        0.1307
     21 C         149.3880  143.6603  153.0414 C.3     1  UNL1        0.0096
     22 C         149.3525  142.2347  153.5068 C.3     1  UNL1        0.0767
     23 C         150.0984  141.1786  152.7464 C.3     1  UNL1        0.0096
     24 C         143.2692  140.4514  160.7423 C.ar    1  UNL1        0.0467
     25 C         142.6205  141.6842  161.2983 C.ar    1  UNL1        0.0039
     26 C         142.5279  141.8786  162.7828 C.ar    1  UNL1        0.0047
     27 C         143.0841  140.8401  163.7113 C.ar    1  UNL1        0.0559
     28 C         143.7329  139.6072  163.1554 C.ar    1  UNL1        0.0342
     29 C         143.8254  139.4128  161.6709 C.ar    1  UNL1        0.1417
     30 F         144.4741  138.1799  161.1149 F       1  UNL1       -0.2041
     31 C         142.9916  141.0345  165.1958 C.2     1  UNL1        0.2506
     32 O         143.7536  142.1453  165.8556 O.2     1  UNL1       -0.2698
     33 N         142.1370  140.1181  166.0204 N.am    1  UNL1       -0.2658
     34 H         141.6369  139.3890  165.5873 H       1  UNL1        0.1566
     35 C         142.0445  140.3126  167.5049 C.ar    1  UNL1        0.1343
     36 C         141.2676  141.4680  168.0629 C.ar    1  UNL1        0.0383
     37 C         141.1751  141.6625  169.5474 C.ar    1  UNL1        0.0757
     38 C         141.8595  140.7016  170.4737 C.ar    1  UNL1        0.0246
     39 C         142.6364  139.5462  169.9157 C.ar    1  UNL1        0.1003
     40 N         142.7289  139.3517  168.4312 N.ar    1  UNL1       -0.2290
     41 C         140.3982  142.8180  170.1054 C.3     1  UNL1        0.4187
     42 F         139.6213  143.9734  170.6634 F       1  UNL1       -0.1659
     43 F         141.5931  143.7072  169.9277 F       1  UNL1       -0.1659
     44 F         139.2033  141.9287  170.2830 F       1  UNL1       -0.1659
@<TRIPOS>BOND
     1    21    22    1
     2    22    23    1
     3    22    13    1
     4    13    14    2
     5    13    15   am
     6    15    16    1
     7    16    17    1
     8    17    18    1
     9    18    19    1
    10    19     1    1
    11     1     2   ar
    12     2     3   ar
    13     3    24    1
    14    24    25   ar
    15    25    26   ar
    16    26    27   ar
    17    27    31    1
    18    31    32    2
    19    31    33   am
    20    33    35    1
    21    35    36   ar
    22    36    37   ar
    23    37    41    1
    24    41    42    1
    25    41    43    1
    26    41    44    1
    27    37    38   ar
    28    38    39   ar
    29    39    40   ar
    30    27    28   ar
    31    28    29   ar
    32    29    30    1
    33     3     4   ar
    34     4     5   ar
    35     5     6    1
    36     5     7   ar
    37     7     8   ar
    38     8     9   ar
    39     9    10   ar
    40    19    20    1
    41    20    15    1
    42    10     1   ar
    43    29    24   ar
    44    10     4   ar
    45    40    35   ar
    46    33    34    1
    47     6    11    1
    48     6    12    1
@<TRIPOS>MOLECULE
*****
 44 48 0 0 0
SMALL
GASTEIGER

@<TRIPOS>ATOM
      1 C         139.9949  144.1222  156.8385 C.ar    1  UNL1        0.1534
      2 N         140.5179  144.1411  158.2442 N.ar    1  UNL1       -0.2279
      3 C         139.8515  143.0312  159.0017 C.ar    1  UNL1        0.1036
      4 C         138.9166  142.3262  158.0642 C.ar    1  UNL1        0.1142
      5 C         137.9961  141.1574  158.2551 C.ar    1  UNL1        0.1432
      6 N         137.9074  140.4831  159.5921 N.pl3   1  UNL1       -0.3414
      7 N         137.1642  140.6629  157.1091 N.ar    1  UNL1       -0.2265
      8 C         137.2528  141.3372  155.7722 C.ar    1  UNL1        0.1193
      9 C         138.1734  142.5060  155.5812 C.ar    1  UNL1        0.1021
     10 N         139.0053  143.0005  156.7272 N.ar    1  UNL1       -0.2865
     11 H         138.4534  140.8077  160.3443 H       1  UNL1        0.1438
     12 H         137.3032  139.7160  159.7174 H       1  UNL1        0.1438
     13 C         139.7625  148.8172  154.6244 C.2     1  UNL1        0.2253
     14 O         138.8524  149.2886  155.7196 O.2     1  UNL1       -0.2749
     15 N         140.2757  147.4078  154.6303 N.am    1  UNL1       -0.2740
     16 C         141.1857  146.9363  153.5351 C.3     1  UNL1        0.1255
     17 C         141.6989  145.5269  153.5410 C.3     1  UNL1        0.1641
     18 O         141.3019  144.5888  154.6422 O.3     1  UNL1       -0.3451
     19 C         140.3919  145.0602  155.7374 C.3     1  UNL1        0.1913
     20 C         139.8787  146.4697  155.7314 C.3     1  UNL1        0.1307
     21 C         139.6315  149.5478  152.1345 C.3     1  UNL1        0.0096
     22 C         140.1594  149.7552  153.5232 C.3     1  UNL1        0.0767
     23 C         141.0842  150.9007  153.8107 C.3     1  UNL1        0.0096
     24 C         140.0798  142.6866  160.4437 C.ar    1  UNL1        0.0467
     25 C         139.2174  143.2994  161.5069 C.ar    1  UNL1        0.0039
     26 C         139.4458  142.9549  162.9488 C.ar    1  UNL1        0.0047
     27 C         140.5366  141.9974  163.3275 C.ar    1  UNL1        0.0559
     28 C         141.3990  141.3845  162.2643 C.ar    1  UNL1        0.0342
     29 C         141.1707  141.7291  160.8224 C.ar    1  UNL1        0.1417
     30 F         142.0332  141.1162  159.7591 F       1  UNL1       -0.2041
     31 C         140.7649  141.6529  164.7695 C.2     1  UNL1        0.2506
     32 O         139.5984  141.5252  165.7038 O.2     1  UNL1       -0.2698
     33 N         142.1597  141.4360  165.2770 N.am    1  UNL1       -0.2658
     34 H         142.9253  141.5197  164.6637 H       1  UNL1        0.1566
     35 C         142.3879  141.0914  166.7190 C.ar    1  UNL1        0.1343
     36 C         142.7349  142.1700  167.7019 C.ar    1  UNL1        0.0383
     37 C         142.9631  141.8256  169.1439 C.ar    1  UNL1        0.0757
     38 C         142.8444  140.4025  169.6028 C.ar    1  UNL1        0.0246
     39 C         142.4975  139.3239  168.6198 C.ar    1  UNL1        0.1003
     40 N         142.2692  139.6683  167.1779 N.ar    1  UNL1       -0.2290
     41 C         143.3101  142.9042  170.1268 C.3     1  UNL1        0.4187
     42 F         143.6570  143.9828  171.1097 F       1  UNL1       -0.1659
     43 F         144.7610  142.5408  170.0134 F       1  UNL1       -0.1659
     44 F         141.8592  143.2676  170.2402 F       1  UNL1       -0.1659
@<TRIPOS>BOND
     1    21    22    1
     2    22    23    1
     3    22    13    1
     4    13    14    2
     5    13    15   am
     6    15    16    1
     7    16    17    1
     8    17    18    1
     9    18    19    1
    10    19     1    1
    11     1     2   ar
    12     2     3   ar
    13     3    24    1
    14    24    25   ar
    15    25    26   ar
    16    26    27   ar
    17    27    31    1
    18    31    32    2
    19    31    33   am
    20    33    35    1
    21    35    36   ar
    22    36    37   ar
    23    37    41    1
    24    41    42    1
    25    41    43    1
    26    41    44    1
    27    37    38   ar
    28    38    39   ar
    29    39    40   ar
    30    27    28   ar
    31    28    29   ar
    32    29    30    1
    33     3     4   ar
    34     4     5   ar
    35     5     6    1
    36     5     7   ar
    37     7     8   ar
    38     8     9   ar
    39     9    10   ar
    40    19    20    1
    41    20    15    1
    42    10     1   ar
    43    29    24   ar
    44    10     4   ar
    45    40    35   ar
    46    33    34    1
    47     6    11    1
    48     6    12    1
@<TRIPOS>MOLECULE
*****
 44 48 0 0 0
SMALL
GASTEIGER

@<TRIPOS>ATOM
      1 C         139.5402  144.2562  157.1813 C.ar    1  UNL1        0.1534
      2 N         139.8503  144.3729  158.6442 N.ar    1  UNL1       -0.2279
      3 C         139.2955  143.1617  159.3336 C.ar    1  UNL1        0.1036
      4 C         138.6425  142.2965  158.2967 C.ar    1  UNL1        0.1142
      5 C         137.9298  140.9801  158.3919 C.ar    1  UNL1        0.1432
      6 N         137.7786  140.3036  159.7222 N.pl3   1  UNL1       -0.3414
      7 N         137.3683  140.3402  157.1570 N.ar    1  UNL1       -0.2265
      8 C         137.5195  141.0167  155.8267 C.ar    1  UNL1        0.1193
      9 C         138.2323  142.3331  155.7315 C.ar    1  UNL1        0.1021
     10 N         138.7938  142.9730  156.9665 N.ar    1  UNL1       -0.2865
     11 H         138.1471  140.7236  160.5327 H       1  UNL1        0.1438
     12 H         137.3108  139.4396  159.7847 H       1  UNL1        0.1438
     13 C         139.2793  149.0634  155.2259 C.2     1  UNL1        0.2253
     14 O         138.4066  149.4821  156.3718 O.2     1  UNL1       -0.2749
     15 N         139.7809  147.6523  155.1418 N.am    1  UNL1       -0.2740
     16 C         140.6536  147.2335  153.9959 C.3     1  UNL1        0.1255
     17 C         141.1551  145.8224  153.9118 C.3     1  UNL1        0.1641
     18 O         140.7840  144.8300  154.9736 O.3     1  UNL1       -0.3451
     19 C         139.9113  145.2486  156.1195 C.3     1  UNL1        0.1913
     20 C         139.4097  146.6599  156.2036 C.3     1  UNL1        0.1307
     21 C         140.0908  151.4370  154.5495 C.3     1  UNL1        0.0096
     22 C         139.6504  150.0558  154.1641 C.3     1  UNL1        0.0767
     23 C         139.5813  149.6670  152.7171 C.3     1  UNL1        0.0096
     24 C         139.3790  142.8673  160.8020 C.ar    1  UNL1        0.0467
     25 C         138.2222  143.1935  161.6994 C.ar    1  UNL1        0.0039
     26 C         138.3057  142.8991  163.1678 C.ar    1  UNL1        0.0047
     27 C         139.5461  142.2785  163.7390 C.ar    1  UNL1        0.0559
     28 C         140.7030  141.9523  162.8417 C.ar    1  UNL1        0.0342
     29 C         140.6195  142.2467  161.3732 C.ar    1  UNL1        0.1417
     30 F         141.7764  141.9204  160.4759 F       1  UNL1       -0.2041
     31 C         139.6296  141.9841  165.2074 C.2     1  UNL1        0.2506
     32 O         138.7959  140.8876  165.8011 O.2     1  UNL1       -0.2698
     33 N         140.5469  142.7863  166.0822 N.am    1  UNL1       -0.2658
     34 H         141.0941  143.5060  165.6926 H       1  UNL1        0.1566
     35 C         140.6303  142.4918  167.5507 C.ar    1  UNL1        0.1343
     36 C         141.2471  141.2092  168.0245 C.ar    1  UNL1        0.0383
     37 C         141.3306  140.9147  169.4929 C.ar    1  UNL1        0.0757
     38 C         140.7973  141.9028  170.4875 C.ar    1  UNL1        0.0246
     39 C         140.1806  143.1854  170.0137 C.ar    1  UNL1        0.1003
     40 N         140.0971  143.4800  168.5452 N.ar    1  UNL1       -0.2290
     41 C         141.9473  139.6320  169.9667 C.3     1  UNL1        0.4187
     42 F         142.5640  138.3494  170.4405 F       1  UNL1       -0.1659
     43 F         143.2584  140.0393  169.3625 F       1  UNL1       -0.1659
     44 F         140.6362  139.2248  170.5710 F       1  UNL1       -0.1659
@<TRIPOS>BOND
     1    21    22    1
     2    22    23    1
     3    22    13    1
     4    13    14    2
     5    13    15   am
     6    15    16    1
     7    16    17    1
     8    17    18    1
     9    18    19    1
    10    19     1    1
    11     1     2   ar
    12     2     3   ar
    13     3    24    1
    14    24    25   ar
    15    25    26   ar
    16    26    27   ar
    17    27    31    1
    18    31    32    2
    19    31    33   am
    20    33    35    1
    21    35    36   ar
    22    36    37   ar
    23    37    41    1
    24    41    42    1
    25    41    43    1
    26    41    44    1
    27    37    38   ar
    28    38    39   ar
    29    39    40   ar
    30    27    28   ar
    31    28    29   ar
    32    29    30    1
    33     3     4   ar
    34     4     5   ar
    35     5     6    1
    36     5     7   ar
    37     7     8   ar
    38     8     9   ar
    39     9    10   ar
    40    19    20    1
    41    20    15    1
    42    10     1   ar
    43    29    24   ar
    44    10     4   ar
    45    40    35   ar
    46    33    34    1
    47     6    11    1
    48     6    12    1
@<TRIPOS>MOLECULE
*****
 44 48 0 0 0
SMALL
GASTEIGER

@<TRIPOS>ATOM
      1 C         141.0893  141.3718  163.6551 C.ar    1  UNL1        0.1534
      2 N         141.6011  140.4276  162.6079 N.ar    1  UNL1       -0.2279
      3 C         140.7512  140.5895  161.3826 C.ar    1  UNL1        0.1036
      4 C         139.7141  141.6338  161.6725 C.ar    1  UNL1        0.1142
      5 C         138.6064  142.2068  160.8391 C.ar    1  UNL1        0.1432
      6 N         138.3974  141.7234  159.4346 N.pl3   1  UNL1       -0.3414
      7 N         137.7078  143.2634  161.4101 N.ar    1  UNL1       -0.2265
      8 C         137.9168  143.7469  162.8146 C.ar    1  UNL1        0.1193
      9 C         139.0245  143.1738  163.6480 C.ar    1  UNL1        0.1021
     10 N         139.9231  142.1172  163.0770 N.ar    1  UNL1       -0.2865
     11 H         138.9873  141.0299  159.0598 H       1  UNL1        0.1438
     12 H         137.6704  142.0995  158.8876 H       1  UNL1        0.1438
     13 C         140.8073  140.4583  168.7625 C.2     1  UNL1        0.2253
     14 O         139.5529  139.6635  168.5511 O.2     1  UNL1       -0.2749
     15 N         141.5051  141.0841  167.5915 N.am    1  UNL1       -0.2740
     16 C         142.7594  141.8790  167.8029 C.3     1  UNL1        0.1255
     17 C         143.4571  142.5048  166.6317 C.3     1  UNL1        0.1641
     18 O         142.9004  142.3357  165.2491 O.3     1  UNL1       -0.3451
     19 C         141.6461  141.5409  165.0377 C.3     1  UNL1        0.1913
     20 C         140.9483  140.9151  166.2089 C.3     1  UNL1        0.1307
     21 C         142.4754  139.7388  170.6200 C.3     1  UNL1        0.0096
     22 C         141.3640  140.6274  170.1451 C.3     1  UNL1        0.0767
     23 C         140.8095  141.6850  171.0528 C.3     1  UNL1        0.0096
     24 C         140.9103  139.8390  160.0937 C.ar    1  UNL1        0.0467
     25 C         142.0699  140.1373  159.1903 C.ar    1  UNL1        0.0039
     26 C         142.2291  139.3867  157.9014 C.ar    1  UNL1        0.0047
     27 C         141.2285  138.3378  157.5158 C.ar    1  UNL1        0.0559
     28 C         140.0688  138.0394  158.4192 C.ar    1  UNL1        0.0342
     29 C         139.9097  138.7900  159.7081 C.ar    1  UNL1        0.1417
     30 F         138.7500  138.4916  160.6115 F       1  UNL1       -0.2041
     31 C         141.3877  137.5873  156.2269 C.2     1  UNL1        0.2506
     32 O         142.1265  138.2128  155.0811 O.2     1  UNL1       -0.2698
     33 N         140.8080  136.2112  156.0837 N.am    1  UNL1       -0.2658
     34 H         140.3231  135.8007  156.8358 H       1  UNL1        0.1566
     35 C         140.9672  135.4607  154.7947 C.ar    1  UNL1        0.1343
     36 C         141.8252  134.2314  154.7437 C.ar    1  UNL1        0.0383
     37 C         141.9845  133.4809  153.4548 C.ar    1  UNL1        0.0757
     38 C         141.2857  133.9597  152.2169 C.ar    1  UNL1        0.0246
     39 C         140.4277  135.1890  152.2679 C.ar    1  UNL1        0.1003
     40 N         140.2684  135.9396  153.5569 N.ar    1  UNL1       -0.2290
     41 C         142.8425  132.2516  153.4038 C.3     1  UNL1        0.4187
     42 F         143.7005  131.0223  153.3528 F       1  UNL1       -0.1659
     43 F         142.2630  131.9027  152.0650 F       1  UNL1       -0.1659
     44 F         143.4219  132.6005  154.7427 F       1  UNL1       -0.1659
@<TRIPOS>BOND
     1    21    22    1
     2    22    23    1
     3    22    13    1
     4    13    14    2
     5    13    15   am
     6    15    16    1
     7    16    17    1
     8    17    18    1
     9    18    19    1
    10    19     1    1
    11     1     2   ar
    12     2     3   ar
    13     3    24    1
    14    24    25   ar
    15    25    26   ar
    16    26    27   ar
    17    27    31    1
    18    31    32    2
    19    31    33   am
    20    33    35    1
    21    35    36   ar
    22    36    37   ar
    23    37    41    1
    24    41    42    1
    25    41    43    1
    26    41    44    1
    27    37    38   ar
    28    38    39   ar
    29    39    40   ar
    30    27    28   ar
    31    28    29   ar
    32    29    30    1
    33     3     4   ar
    34     4     5   ar
    35     5     6    1
    36     5     7   ar
    37     7     8   ar
    38     8     9   ar
    39     9    10   ar
    40    19    20    1
    41    20    15    1
    42    10     1   ar
    43    29    24   ar
    44    10     4   ar
    45    40    35   ar
    46    33    34    1
    47     6    11    1
    48     6    12    1
@<TRIPOS>MOLECULE
*****
 44 48 0 0 0
SMALL
GASTEIGER

@<TRIPOS>ATOM
      1 C         143.8429  140.1104  156.6685 C.ar    1  UNL1        0.1534
      2 N         143.9793  140.5383  158.0996 N.ar    1  UNL1       -0.2279
      3 C         142.8194  139.9734  158.8648 C.ar    1  UNL1        0.1036
      4 C         141.9662  139.1964  157.9066 C.ar    1  UNL1        0.1142
      5 C         140.6950  138.4227  158.0948 C.ar    1  UNL1        0.1432
      6 N         140.0624  138.3381  159.4523 N.pl3   1  UNL1       -0.3414
      7 N         140.0564  137.7337  156.9255 N.ar    1  UNL1       -0.2265
      8 C         140.6889  137.8183  155.5680 C.ar    1  UNL1        0.1193
      9 C         141.9601  138.5919  155.3799 C.ar    1  UNL1        0.1021
     10 N         142.5987  139.2810  156.5492 N.ar    1  UNL1       -0.2865
     11 H         140.4816  138.7904  160.2197 H       1  UNL1        0.1438
     12 H         139.2281  137.8303  159.5758 H       1  UNL1        0.1438
     13 C         148.4374  141.9226  155.0541 C.2     1  UNL1        0.2253
     14 O         148.8500  142.1459  156.4789 O.2     1  UNL1       -0.2749
     15 N         147.0826  141.3580  154.7453 N.am    1  UNL1       -0.2740
     16 C         146.6700  141.1347  153.3205 C.3     1  UNL1        0.1255
     17 C         145.3151  140.5700  153.0118 C.3     1  UNL1        0.1641
     18 O         144.3728  140.2286  154.1278 O.3     1  UNL1       -0.3451
     19 C         144.7852  140.4518  155.5525 C.3     1  UNL1        0.1913
     20 C         146.1402  141.0165  155.8613 C.3     1  UNL1        0.1307
     21 C         150.4733  141.3090  153.5612 C.3     1  UNL1        0.0096
     22 C         149.3798  142.2641  153.9381 C.3     1  UNL1        0.0767
     23 C         149.2286  143.5606  153.1990 C.3     1  UNL1        0.0096
     24 C         142.5586  140.1539  160.3309 C.ar    1  UNL1        0.0467
     25 C         141.8217  141.3662  160.8180 C.ar    1  UNL1        0.0039
     26 C         141.5608  141.5467  162.2840 C.ar    1  UNL1        0.0047
     27 C         142.0368  140.5148  163.2631 C.ar    1  UNL1        0.0559
     28 C         142.7737  139.3025  162.7761 C.ar    1  UNL1        0.0342
     29 C         143.0346  139.1220  161.3101 C.ar    1  UNL1        0.1417
     30 F         143.7715  137.9096  160.8231 F       1  UNL1       -0.2041
     31 C         141.7760  140.6953  164.7292 C.2     1  UNL1        0.2506
     32 O         142.0586  142.0147  165.3843 O.2     1  UNL1       -0.2698
     33 N         141.2325  139.5564  165.5401 N.am    1  UNL1       -0.2658
     34 H         141.0470  138.6904  165.1101 H       1  UNL1        0.1566
     35 C         140.9716  139.7370  167.0062 C.ar    1  UNL1        0.1343
     36 C         142.0732  139.5066  167.9978 C.ar    1  UNL1        0.0383
     37 C         141.8125  139.6871  169.4639 C.ar    1  UNL1        0.0757
     38 C         140.4501  140.0981  169.9383 C.ar    1  UNL1        0.0246
     39 C         139.3485  140.3284  168.9466 C.ar    1  UNL1        0.1003
     40 N         139.6093  140.1479  167.4805 N.ar    1  UNL1       -0.2290
     41 C         142.9141  139.4567  170.4556 C.3     1  UNL1        0.4187
     42 F         144.0156  139.2263  171.4473 F       1  UNL1       -0.1659
     43 F         142.9819  140.9312  170.7228 F       1  UNL1       -0.1659
     44 F         142.8463  137.9823  170.1884 F       1  UNL1       -0.1659
@<TRIPOS>BOND
     1    21    22    1
     2    22    23    1
     3    22    13    1
     4    13    14    2
     5    13    15   am
     6    15    16    1
     7    16    17    1
     8    17    18    1
     9    18    19    1
    10    19     1    1
    11     1     2   ar
    12     2     3   ar
    13     3    24    1
    14    24    25   ar
    15    25    26   ar
    16    26    27   ar
    17    27    31    1
    18    31    32    2
    19    31    33   am
    20    33    35    1
    21    35    36   ar
    22    36    37   ar
    23    37    41    1
    24    41    42    1
    25    41    43    1
    26    41    44    1
    27    37    38   ar
    28    38    39   ar
    29    39    40   ar
    30    27    28   ar
    31    28    29   ar
    32    29    30    1
    33     3     4   ar
    34     4     5   ar
    35     5     6    1
    36     5     7   ar
    37     7     8   ar
    38     8     9   ar
    39     9    10   ar
    40    19    20    1
    41    20    15    1
    42    10     1   ar
    43    29    24   ar
    44    10     4   ar
    45    40    35   ar
    46    33    34    1
    47     6    11    1
    48     6    12    1
