@<TRIPOS>MOLECULE
*****
 30 34 0 0 0
SMALL
GASTEIGER

@<TRIPOS>ATOM
      1 C         139.9182  142.9362  164.8669 C.3     1  UNL1        0.0216
      2 C         140.4771  143.8350  163.8039 C.3     1  UNL1        0.0214
      3 C         141.0793  144.4659  162.5835 C.3     1  UNL1        0.0724
      4 N         141.4036  143.3729  161.6086 N.3     1  UNL1       -0.2726
      5 C         141.0018  142.0665  162.2265 C.3     1  UNL1        0.0724
      6 C         140.4292  142.3520  163.5833 C.3     1  UNL1        0.0214
      7 C         139.4845  141.6835  165.5687 C.ar    1  UNL1       -0.0214
      8 C         138.5450  140.7308  164.8904 C.ar    1  UNL1       -0.0042
      9 C         138.1113  139.4781  165.5922 C.ar    1  UNL1        0.0010
     10 C         138.6170  139.1779  166.9721 C.ar    1  UNL1        0.0158
     11 C         139.5565  140.1305  167.6503 C.ar    1  UNL1        0.0641
     12 C         139.9902  141.3833  166.9485 C.ar    1  UNL1        0.0116
     13 N         140.0623  139.8304  169.0301 N.pl3   1  UNL1       -0.2187
     14 H         140.2278  138.8988  169.3019 H       1  UNL1        0.1734
     15 S         140.3157  140.9497  169.9960 S.O2    1  UNL1        0.0558
     16 C         140.5693  142.0691  170.9619 C.3     1  UNL1        0.1996
     17 O         141.7913  140.8187  169.7605 O.2     1  UNL1       -0.1544
     18 O         138.8402  141.0808  170.2315 O.2     1  UNL1       -0.1544
     19 C         138.4913  144.9714  165.6231 C.3     1  UNL1        0.0003
     20 C         139.5579  143.9555  165.9067 C.3     1  UNL1        0.0041
     21 C         142.0213  143.5545  160.2539 C.3     1  UNL1        0.0727
     22 C         141.1889  144.0560  159.1112 C.3     1  UNL1        0.0247
     23 C         141.1478  145.4666  158.6027 C.3     1  UNL1        0.0277
     24 C         140.1850  145.5173  157.4536 C.ar    1  UNL1       -0.0261
     25 C         139.7411  146.6411  156.5649 C.ar    1  UNL1       -0.0046
     26 C         138.7433  146.3858  155.4745 C.ar    1  UNL1       -0.0003
     27 C         138.1893  145.0065  155.2728 C.ar    1  UNL1       -0.0003
     28 C         138.6331  143.8826  156.1615 C.ar    1  UNL1       -0.0046
     29 C         139.6310  144.1380  157.2519 C.ar    1  UNL1       -0.0261
     30 C         140.2514  143.2349  158.2764 C.3     1  UNL1        0.0277
@<TRIPOS>BOND
     1    19    20    1
     2     1    20    1
     3     1     7    1
     4     7     8   ar
     5     8     9   ar
     6     9    10   ar
     7    10    11   ar
     8    11    13    1
     9    13    15    1
    10    15    16    1
    11    15    17    2
    12    15    18    2
    13    11    12   ar
    14     1     2    1
    15     2     3    1
    16     3     4    1
    17     4    21    1
    18    21    22    1
    19    22    23    1
    20    23    24    1
    21    24    25   ar
    22    25    26   ar
    23    26    27   ar
    24    27    28   ar
    25    28    29   ar
    26    29    30    1
    27     4     5    1
    28     6     5    1
    29     6     1    1
    30    12     7   ar
    31     6     2    1
    32    30    22    1
    33    29    24   ar
    34    13    14    1
@<TRIPOS>MOLECULE
*****
 30 34 0 0 0
SMALL
GASTEIGER

@<TRIPOS>ATOM
      1 C         141.6064  138.4733  162.4291 C.3     1  UNL1        0.0216
      2 C         142.3863  138.2232  161.1724 C.3     1  UNL1        0.0214
      3 C         142.8895  138.0159  159.7746 C.3     1  UNL1        0.0724
      4 N         141.7288  138.1687  158.8366 N.3     1  UNL1       -0.2726
      5 C         140.5083  138.4704  159.6548 C.3     1  UNL1        0.0724
      6 C         140.9146  138.5041  161.0984 C.3     1  UNL1        0.0214
      7 C         140.4463  138.7699  163.3325 C.ar    1  UNL1       -0.0214
      8 C         140.3267  138.0700  164.6539 C.ar    1  UNL1       -0.0042
      9 C         139.1667  138.3666  165.5573 C.ar    1  UNL1        0.0010
     10 C         138.1262  139.3630  165.1396 C.ar    1  UNL1        0.0158
     11 C         138.2458  140.0629  163.8182 C.ar    1  UNL1        0.0641
     12 C         139.4059  139.7663  162.9147 C.ar    1  UNL1        0.0116
     13 N         137.2054  141.0592  163.4004 N.pl3   1  UNL1       -0.2187
     14 H         136.2701  140.7747  163.2838 H       1  UNL1        0.1734
     15 S         137.5898  142.4891  163.1603 S.O2    1  UNL1        0.0558
     16 C         137.9743  143.9191  162.9203 C.3     1  UNL1        0.1996
     17 O         137.6396  142.7243  164.6409 O.2     1  UNL1       -0.1544
     18 O         137.5401  142.2540  161.6797 O.2     1  UNL1       -0.1544
     19 C         143.9493  139.1612  163.3164 C.3     1  UNL1        0.0003
     20 C         142.7010  138.3396  163.4458 C.3     1  UNL1        0.0041
     21 C         141.7797  138.0420  157.3429 C.3     1  UNL1        0.0727
     22 C         142.0318  136.7048  156.7117 C.3     1  UNL1        0.0247
     23 C         143.1902  135.7972  157.0019 C.3     1  UNL1        0.0277
     24 C         143.0441  134.5719  156.1491 C.ar    1  UNL1       -0.0261
     25 C         143.8868  133.3387  156.0112 C.ar    1  UNL1       -0.0046
     26 C         143.4807  132.2559  155.0560 C.ar    1  UNL1       -0.0003
     27 C         142.2319  132.4062  154.2387 C.ar    1  UNL1       -0.0003
     28 C         141.3892  133.6394  154.3767 C.ar    1  UNL1       -0.0046
     29 C         141.7953  134.7222  155.3319 C.ar    1  UNL1       -0.0261
     30 C         141.1697  136.0404  155.6796 C.3     1  UNL1        0.0277
@<TRIPOS>BOND
     1    19    20    1
     2     1    20    1
     3     1     7    1
     4     7     8   ar
     5     8     9   ar
     6     9    10   ar
     7    10    11   ar
     8    11    13    1
     9    13    15    1
    10    15    16    1
    11    15    17    2
    12    15    18    2
    13    11    12   ar
    14     1     2    1
    15     2     3    1
    16     3     4    1
    17     4    21    1
    18    21    22    1
    19    22    23    1
    20    23    24    1
    21    24    25   ar
    22    25    26   ar
    23    26    27   ar
    24    27    28   ar
    25    28    29   ar
    26    29    30    1
    27     4     5    1
    28     6     5    1
    29     6     1    1
    30    12     7   ar
    31     6     2    1
    32    30    22    1
    33    29    24   ar
    34    13    14    1
@<TRIPOS>MOLECULE
*****
 30 34 0 0 0
SMALL
GASTEIGER

@<TRIPOS>ATOM
      1 C         140.9957  142.4494  165.3523 C.3     1  UNL1        0.0216
      2 C         141.4673  143.5823  164.4895 C.3     1  UNL1        0.0214
      3 C         141.6725  144.6629  163.4696 C.3     1  UNL1        0.0724
      4 N         140.4972  144.6500  162.5376 N.3     1  UNL1       -0.2726
      5 C         139.5656  143.5613  162.9815 C.3     1  UNL1        0.0724
      6 C         140.1651  142.9014  164.1879 C.3     1  UNL1        0.0214
      7 C         140.1315  141.3397  165.8734 C.ar    1  UNL1       -0.0214
      8 C         139.3890  140.4548  164.9164 C.ar    1  UNL1       -0.0042
      9 C         138.5247  139.3451  165.4376 C.ar    1  UNL1        0.0010
     10 C         138.4029  139.1203  166.9156 C.ar    1  UNL1        0.0158
     11 C         139.1454  140.0052  167.8726 C.ar    1  UNL1        0.0641
     12 C         140.0097  141.1149  167.3514 C.ar    1  UNL1        0.0116
     13 N         139.0236  139.7804  169.3505 N.pl3   1  UNL1       -0.2187
     14 H         138.3173  139.1916  169.7023 H       1  UNL1        0.1734
     15 S         139.9778  140.4526  170.2926 S.O2    1  UNL1        0.0558
     16 C         140.9321  141.1249  171.2347 C.3     1  UNL1        0.1996
     17 O         140.9693  139.3480  170.0766 O.2     1  UNL1       -0.1544
     18 O         138.9863  141.5573  170.5087 O.2     1  UNL1       -0.1544
     19 C         143.5453  142.3985  165.8491 C.3     1  UNL1        0.0003
     20 C         142.1265  142.3828  166.3356 C.3     1  UNL1        0.0041
     21 C         140.2899  145.5650  161.3673 C.3     1  UNL1        0.0727
     22 C         140.8476  145.2015  160.0231 C.3     1  UNL1        0.0247
     23 C         141.8778  144.1455  159.7522 C.3     1  UNL1        0.0277
     24 C         142.1400  144.1216  158.2754 C.ar    1  UNL1       -0.0261
     25 C         143.0570  143.2862  157.4323 C.ar    1  UNL1       -0.0046
     26 C         143.1059  143.4921  155.9473 C.ar    1  UNL1       -0.0003
     27 C         142.2378  144.5335  155.3055 C.ar    1  UNL1       -0.0003
     28 C         141.3207  145.3689  156.1487 C.ar    1  UNL1       -0.0046
     29 C         141.2718  145.1629  157.6337 C.ar    1  UNL1       -0.0261
     30 C         140.4731  145.8304  158.7138 C.3     1  UNL1        0.0277
@<TRIPOS>BOND
     1    19    20    1
     2     1    20    1
     3     1     7    1
     4     7     8   ar
     5     8     9   ar
     6     9    10   ar
     7    10    11   ar
     8    11    13    1
     9    13    15    1
    10    15    16    1
    11    15    17    2
    12    15    18    2
    13    11    12   ar
    14     1     2    1
    15     2     3    1
    16     3     4    1
    17     4    21    1
    18    21    22    1
    19    22    23    1
    20    23    24    1
    21    24    25   ar
    22    25    26   ar
    23    26    27   ar
    24    27    28   ar
    25    28    29   ar
    26    29    30    1
    27     4     5    1
    28     6     5    1
    29     6     1    1
    30    12     7   ar
    31     6     2    1
    32    30    22    1
    33    29    24   ar
    34    13    14    1
@<TRIPOS>MOLECULE
*****
 30 34 0 0 0
SMALL
GASTEIGER

@<TRIPOS>ATOM
      1 C         139.4495  140.7200  160.9766 C.3     1  UNL1        0.0216
      2 C         139.0275  139.6640  161.9548 C.3     1  UNL1        0.0214
      3 C         138.6277  138.8401  163.1428 C.3     1  UNL1        0.0724
      4 N         138.6459  139.7292  164.3509 N.3     1  UNL1       -0.2726
      5 C         139.0569  141.1026  163.9095 C.3     1  UNL1        0.0724
      6 C         139.2928  141.0624  162.4286 C.3     1  UNL1        0.0214
      7 C         139.8675  142.0560  160.4377 C.ar    1  UNL1       -0.0214
      8 C         139.2913  142.5576  159.1468 C.ar    1  UNL1       -0.0042
      9 C         139.7093  143.8935  158.6079 C.ar    1  UNL1        0.0010
     10 C         140.7034  144.7280  159.3598 C.ar    1  UNL1        0.0158
     11 C         141.2796  144.2264  160.6508 C.ar    1  UNL1        0.0641
     12 C         140.8616  142.8903  161.1897 C.ar    1  UNL1        0.0116
     13 N         142.2737  145.0607  161.4027 N.pl3   1  UNL1       -0.2187
     14 H         142.5523  145.9351  161.0461 H       1  UNL1        0.1734
     15 S         142.8433  144.5631  162.6980 S.O2    1  UNL1        0.0558
     16 C         143.4130  144.0653  163.9934 C.3     1  UNL1        0.1996
     17 O         144.0366  144.0243  161.9662 O.2     1  UNL1       -0.1544
     18 O         141.6500  145.1019  163.4299 O.2     1  UNL1       -0.1544
     19 C         140.6596  139.0814  159.3640 C.3     1  UNL1        0.0003
     20 C         139.4611  139.9137  159.7119 C.3     1  UNL1        0.0041
     21 C         138.3117  139.3172  165.7539 C.3     1  UNL1        0.0727
     22 C         139.2613  139.6273  166.8729 C.3     1  UNL1        0.0247
     23 C         140.7480  139.7840  166.7499 C.3     1  UNL1        0.0277
     24 C         141.2964  140.0887  168.1124 C.ar    1  UNL1       -0.0261
     25 C         142.6926  140.3414  168.5989 C.ar    1  UNL1       -0.0046
     26 C         142.9410  140.6257  170.0506 C.ar    1  UNL1       -0.0003
     27 C         141.7932  140.6572  171.0158 C.ar    1  UNL1       -0.0003
     28 C         140.3970  140.4044  170.5293 C.ar    1  UNL1       -0.0046
     29 C         140.1486  140.1202  169.0776 C.ar    1  UNL1       -0.0261
     30 C         138.8908  139.8350  168.3116 C.3     1  UNL1        0.0277
@<TRIPOS>BOND
     1    19    20    1
     2     1    20    1
     3     1     7    1
     4     7     8   ar
     5     8     9   ar
     6     9    10   ar
     7    10    11   ar
     8    11    13    1
     9    13    15    1
    10    15    16    1
    11    15    17    2
    12    15    18    2
    13    11    12   ar
    14     1     2    1
    15     2     3    1
    16     3     4    1
    17     4    21    1
    18    21    22    1
    19    22    23    1
    20    23    24    1
    21    24    25   ar
    22    25    26   ar
    23    26    27   ar
    24    27    28   ar
    25    28    29   ar
    26    29    30    1
    27     4     5    1
    28     6     5    1
    29     6     1    1
    30    12     7   ar
    31     6     2    1
    32    30    22    1
    33    29    24   ar
    34    13    14    1
@<TRIPOS>MOLECULE
*****
 30 34 0 0 0
SMALL
GASTEIGER

@<TRIPOS>ATOM
      1 C         142.8799  138.6173  158.0911 C.3     1  UNL1        0.0216
      2 C         143.2994  139.3159  159.3505 C.3     1  UNL1        0.0214
      3 C         143.6233  139.7502  160.7492 C.3     1  UNL1        0.0724
      4 N         143.2541  138.6324  161.6790 N.3     1  UNL1       -0.2726
      5 C         142.7021  137.5072  160.8548 C.3     1  UNL1        0.0724
      6 C         142.7300  137.9296  159.4157 C.3     1  UNL1        0.0214
      7 C         142.3438  137.5513  157.1821 C.ar    1  UNL1       -0.0214
      8 C         140.9936  137.7148  156.5493 C.ar    1  UNL1       -0.0042
      9 C         140.4574  136.6488  155.6404 C.ar    1  UNL1        0.0010
     10 C         141.2713  135.4195  155.3641 C.ar    1  UNL1        0.0158
     11 C         142.6215  135.2561  155.9969 C.ar    1  UNL1        0.0641
     12 C         143.1576  136.3221  156.9059 C.ar    1  UNL1        0.0116
     13 N         143.4353  134.0268  155.7207 N.pl3   1  UNL1       -0.2187
     14 H         144.4068  134.1012  155.5793 H       1  UNL1        0.1734
     15 S         142.7692  132.6843  155.6600 S.O2    1  UNL1        0.0558
     16 C         142.1030  131.3416  155.5993 C.3     1  UNL1        0.1996
     17 O         142.5980  132.7018  157.1501 O.2     1  UNL1       -0.1544
     18 O         142.9403  132.6667  154.1699 O.2     1  UNL1       -0.1544
     19 C         144.4554  140.5037  157.2489 C.3     1  UNL1        0.0003
     20 C         143.2161  139.6752  157.0822 C.3     1  UNL1        0.0041
     21 C         143.4097  138.6386  163.1708 C.3     1  UNL1        0.0727
     22 C         142.1957  138.6611  164.0514 C.3     1  UNL1        0.0247
     23 C         141.0148  137.7419  163.9488 C.3     1  UNL1        0.0277
     24 C         140.0386  138.1194  165.0232 C.ar    1  UNL1       -0.0261
     25 C         138.6984  137.5626  165.4025 C.ar    1  UNL1       -0.0046
     26 C         137.9358  138.1583  166.5485 C.ar    1  UNL1       -0.0003
     27 C         138.5133  139.3110  167.3152 C.ar    1  UNL1       -0.0003
     28 C         139.8535  139.8678  166.9360 C.ar    1  UNL1       -0.0046
     29 C         140.6161  139.2720  165.7900 C.ar    1  UNL1       -0.0261
     30 C         141.9492  139.6068  165.1894 C.3     1  UNL1        0.0277
@<TRIPOS>BOND
     1    19    20    1
     2     1    20    1
     3     1     7    1
     4     7     8   ar
     5     8     9   ar
     6     9    10   ar
     7    10    11   ar
     8    11    13    1
     9    13    15    1
    10    15    16    1
    11    15    17    2
    12    15    18    2
    13    11    12   ar
    14     1     2    1
    15     2     3    1
    16     3     4    1
    17     4    21    1
    18    21    22    1
    19    22    23    1
    20    23    24    1
    21    24    25   ar
    22    25    26   ar
    23    26    27   ar
    24    27    28   ar
    25    28    29   ar
    26    29    30    1
    27     4     5    1
    28     6     5    1
    29     6     1    1
    30    12     7   ar
    31     6     2    1
    32    30    22    1
    33    29    24   ar
    34    13    14    1
@<TRIPOS>MOLECULE
*****
 30 34 0 0 0
SMALL
GASTEIGER

@<TRIPOS>ATOM
      1 C         140.7059  141.9845  165.1828 C.3     1  UNL1        0.0216
      2 C         141.7228  142.5318  164.2255 C.3     1  UNL1        0.0214
      3 C         142.7748  142.7787  163.1851 C.3     1  UNL1        0.0724
      4 N         143.1554  141.4564  162.5878 N.3     1  UNL1       -0.2726
      5 C         142.3387  140.3922  163.2590 C.3     1  UNL1        0.0724
      6 C         141.4532  141.0569  164.2712 C.3     1  UNL1        0.0214
      7 C         139.8448  140.9958  165.9114 C.ar    1  UNL1       -0.0214
      8 C         138.9357  140.0833  165.1426 C.ar    1  UNL1       -0.0042
      9 C         138.0746  139.0945  165.8712 C.ar    1  UNL1        0.0010
     10 C         138.1224  139.0183  167.3684 C.ar    1  UNL1        0.0158
     11 C         139.0315  139.9308  168.1373 C.ar    1  UNL1        0.0641
     12 C         139.8926  140.9196  167.4086 C.ar    1  UNL1        0.0116
     13 N         139.0793  139.8546  169.6345 N.pl3   1  UNL1       -0.2187
     14 H         138.3666  139.3864  170.1265 H       1  UNL1        0.1734
     15 S         140.2130  140.4917  170.3820 S.O2    1  UNL1        0.0558
     16 C         141.3468  141.1287  171.1296 C.3     1  UNL1        0.1996
     17 O         141.0704  139.2929  170.1034 O.2     1  UNL1       -0.1544
     18 O         139.3556  141.6905  170.6607 O.2     1  UNL1       -0.1544
     19 C         139.4278  144.2439  165.0770 C.3     1  UNL1        0.0003
     20 C         140.2577  143.2555  165.8413 C.3     1  UNL1        0.0041
     21 C         144.1740  141.2368  161.5088 C.3     1  UNL1        0.0727
     22 C         143.7808  140.5491  160.2350 C.3     1  UNL1        0.0247
     23 C         143.3888  139.1080  160.0957 C.3     1  UNL1        0.0277
     24 C         143.0763  138.8500  158.6515 C.ar    1  UNL1       -0.0261
     25 C         142.6364  137.6137  157.9250 C.ar    1  UNL1       -0.0046
     26 C         142.3954  137.6590  156.4452 C.ar    1  UNL1       -0.0003
     27 C         142.5943  138.9408  155.6919 C.ar    1  UNL1       -0.0003
     28 C         143.0342  140.1772  156.4183 C.ar    1  UNL1       -0.0046
     29 C         143.2753  140.1318  157.8981 C.ar    1  UNL1       -0.0261
     30 C         143.7106  141.1819  158.8768 C.3     1  UNL1        0.0277
@<TRIPOS>BOND
     1    19    20    1
     2     1    20    1
     3     1     7    1
     4     7     8   ar
     5     8     9   ar
     6     9    10   ar
     7    10    11   ar
     8    11    13    1
     9    13    15    1
    10    15    16    1
    11    15    17    2
    12    15    18    2
    13    11    12   ar
    14     1     2    1
    15     2     3    1
    16     3     4    1
    17     4    21    1
    18    21    22    1
    19    22    23    1
    20    23    24    1
    21    24    25   ar
    22    25    26   ar
    23    26    27   ar
    24    27    28   ar
    25    28    29   ar
    26    29    30    1
    27     4     5    1
    28     6     5    1
    29     6     1    1
    30    12     7   ar
    31     6     2    1
    32    30    22    1
    33    29    24   ar
    34    13    14    1
@<TRIPOS>MOLECULE
*****
 30 34 0 0 0
SMALL
GASTEIGER

@<TRIPOS>ATOM
      1 C         140.2477  142.6882  165.0371 C.3     1  UNL1        0.0216
      2 C         140.8229  143.2616  163.7759 C.3     1  UNL1        0.0214
      3 C         141.6460  143.6564  162.5857 C.3     1  UNL1        0.0724
      4 N         142.9518  142.9219  162.6607 N.3     1  UNL1       -0.2726
      5 C         142.9357  142.0732  163.8975 C.3     1  UNL1        0.0724
      6 C         141.6200  142.2831  164.5867 C.3     1  UNL1        0.0214
      7 C         140.1356  141.8762  166.2932 C.ar    1  UNL1       -0.0214
      8 C         139.3453  140.6012  166.2940 C.ar    1  UNL1       -0.0042
      9 C         139.2332  139.7892  167.5502 C.ar    1  UNL1        0.0010
     10 C         139.9114  140.2520  168.8055 C.ar    1  UNL1        0.0158
     11 C         140.7017  141.5269  168.8047 C.ar    1  UNL1        0.0641
     12 C         140.8138  142.3390  167.5485 C.ar    1  UNL1        0.0116
     13 N         141.3798  141.9897  170.0600 N.pl3   1  UNL1       -0.2187
     14 H         140.8649  142.0754  170.8947 H       1  UNL1        0.1734
     15 S         142.8424  142.3220  170.0435 S.O2    1  UNL1        0.0558
     16 C         144.3052  142.6543  170.0270 C.3     1  UNL1        0.1996
     17 O         143.1580  140.9128  169.6380 O.2     1  UNL1       -0.1544
     18 O         142.5269  143.7313  170.4490 O.2     1  UNL1       -0.1544
     19 C         138.8249  144.8317  165.3988 C.3     1  UNL1        0.0003
     20 C         138.9144  143.3753  165.0511 C.3     1  UNL1        0.0041
     21 C         144.0761  143.0191  161.6727 C.3     1  UNL1        0.0727
     22 C         144.0334  142.2160  160.4065 C.3     1  UNL1        0.0247
     23 C         143.2439  140.9598  160.1854 C.3     1  UNL1        0.0277
     24 C         143.4953  140.4954  158.7814 C.ar    1  UNL1       -0.0261
     25 C         142.9859  139.3153  158.0083 C.ar    1  UNL1       -0.0046
     26 C         143.4214  139.1043  156.5885 C.ar    1  UNL1       -0.0003
     27 C         144.3663  140.0734  155.9419 C.ar    1  UNL1       -0.0003
     28 C         144.8757  141.2535  156.7151 C.ar    1  UNL1       -0.0046
     29 C         144.4402  141.4645  158.1348 C.ar    1  UNL1       -0.0261
     30 C         144.7727  142.5278  159.1392 C.3     1  UNL1        0.0277
@<TRIPOS>BOND
     1    19    20    1
     2     1    20    1
     3     1     7    1
     4     7     8   ar
     5     8     9   ar
     6     9    10   ar
     7    10    11   ar
     8    11    13    1
     9    13    15    1
    10    15    16    1
    11    15    17    2
    12    15    18    2
    13    11    12   ar
    14     1     2    1
    15     2     3    1
    16     3     4    1
    17     4    21    1
    18    21    22    1
    19    22    23    1
    20    23    24    1
    21    24    25   ar
    22    25    26   ar
    23    26    27   ar
    24    27    28   ar
    25    28    29   ar
    26    29    30    1
    27     4     5    1
    28     6     5    1
    29     6     1    1
    30    12     7   ar
    31     6     2    1
    32    30    22    1
    33    29    24   ar
    34    13    14    1
@<TRIPOS>MOLECULE
*****
 30 34 0 0 0
SMALL
GASTEIGER

@<TRIPOS>ATOM
      1 C         140.2807  144.1298  164.2798 C.3     1  UNL1        0.0216
      2 C         139.9825  144.8647  163.0065 C.3     1  UNL1        0.0214
      3 C         139.9404  145.4529  161.6273 C.3     1  UNL1        0.0724
      4 N         141.1032  144.9051  160.8540 N.3     1  UNL1       -0.2726
      5 C         141.8639  143.9783  161.7554 C.3     1  UNL1        0.0724
      6 C         141.1713  143.9533  163.0858 C.3     1  UNL1        0.0214
      7 C         140.9716  143.2245  165.2560 C.ar    1  UNL1       -0.0214
      8 C         142.4600  143.0491  165.1923 C.ar    1  UNL1       -0.0042
      9 C         143.1508  142.1438  166.1685 C.ar    1  UNL1        0.0010
     10 C         142.3535  141.4139  167.2084 C.ar    1  UNL1        0.0158
     11 C         140.8651  141.5893  167.2722 C.ar    1  UNL1        0.0641
     12 C         140.1742  142.4947  166.2959 C.ar    1  UNL1        0.0116
     13 N         140.0677  140.8595  168.3120 N.pl3   1  UNL1       -0.2187
     14 H         139.3024  140.3013  168.0434 H       1  UNL1        0.1734
     15 S         140.4362  140.9799  169.7610 S.O2    1  UNL1        0.0558
     16 C         140.8047  141.1005  171.2101 C.3     1  UNL1        0.1996
     17 O         140.0951  142.4402  169.7263 O.2     1  UNL1       -0.1544
     18 O         140.7773  139.5197  169.7957 O.2     1  UNL1       -0.1544
     19 C         137.7311  144.3752  164.7151 C.3     1  UNL1        0.0003
     20 C         139.1502  144.6208  165.1347 C.3     1  UNL1        0.0041
     21 C         141.4452  145.2274  159.4296 C.3     1  UNL1        0.0727
     22 C         140.4526  144.9521  158.3392 C.3     1  UNL1        0.0247
     23 C         140.0793  145.8896  157.2294 C.3     1  UNL1        0.0277
     24 C         139.0550  145.2078  156.3715 C.ar    1  UNL1       -0.0261
     25 C         138.3253  145.6488  155.1374 C.ar    1  UNL1       -0.0046
     26 C         137.3359  144.7309  154.4829 C.ar    1  UNL1       -0.0003
     27 C         137.0762  143.3720  155.0624 C.ar    1  UNL1       -0.0003
     28 C         137.8059  142.9310  156.2965 C.ar    1  UNL1       -0.0046
     29 C         138.7953  143.8489  156.9510 C.ar    1  UNL1       -0.0261
     30 C         139.6591  143.6909  158.1671 C.3     1  UNL1        0.0277
@<TRIPOS>BOND
     1    19    20    1
     2     1    20    1
     3     1     7    1
     4     7     8   ar
     5     8     9   ar
     6     9    10   ar
     7    10    11   ar
     8    11    13    1
     9    13    15    1
    10    15    16    1
    11    15    17    2
    12    15    18    2
    13    11    12   ar
    14     1     2    1
    15     2     3    1
    16     3     4    1
    17     4    21    1
    18    21    22    1
    19    22    23    1
    20    23    24    1
    21    24    25   ar
    22    25    26   ar
    23    26    27   ar
    24    27    28   ar
    25    28    29   ar
    26    29    30    1
    27     4     5    1
    28     6     5    1
    29     6     1    1
    30    12     7   ar
    31     6     2    1
    32    30    22    1
    33    29    24   ar
    34    13    14    1
@<TRIPOS>MOLECULE
*****
 30 34 0 0 0
SMALL
GASTEIGER

@<TRIPOS>ATOM
      1 C         143.7719  141.2782  160.6366 C.3     1  UNL1        0.0216
      2 C         143.9030  140.7720  159.2306 C.3     1  UNL1        0.0214
      3 C         144.1009  140.5649  157.7582 C.3     1  UNL1        0.0724
      4 N         144.4480  141.8898  157.1463 N.3     1  UNL1       -0.2726
      5 C         144.4646  142.9156  158.2405 C.3     1  UNL1        0.0724
      6 C         144.1278  142.2248  159.5287 C.3     1  UNL1        0.0214
      7 C         143.7634  142.2277  161.7977 C.ar    1  UNL1       -0.0214
      8 C         144.7062  142.0174  162.9454 C.ar    1  UNL1       -0.0042
      9 C         144.6977  142.9669  164.1065 C.ar    1  UNL1        0.0010
     10 C         143.7465  144.1266  164.1202 C.ar    1  UNL1        0.0158
     11 C         142.8037  144.3369  162.9726 C.ar    1  UNL1        0.0641
     12 C         142.8122  143.3874  161.8113 C.ar    1  UNL1        0.0116
     13 N         141.8525  145.4966  162.9861 N.pl3   1  UNL1       -0.2187
     14 H         142.1980  146.4158  163.0560 H       1  UNL1        0.1734
     15 S         140.3749  145.2558  162.8934 S.O2    1  UNL1        0.0558
     16 C         138.8972  145.0149  162.8007 C.3     1  UNL1        0.1996
     17 O         140.4157  144.5055  164.1916 O.2     1  UNL1       -0.1544
     18 O         140.3340  146.0061  161.5952 O.2     1  UNL1       -0.1544
     19 C         144.0956  138.7201  160.9544 C.3     1  UNL1        0.0003
     20 C         143.4191  140.0018  161.3411 C.3     1  UNL1        0.0041
     21 C         144.7291  142.1440  155.6950 C.3     1  UNL1        0.0727
     22 C         146.1438  142.2987  155.2209 C.3     1  UNL1        0.0247
     23 C         147.3471  141.6144  155.7986 C.3     1  UNL1        0.0277
     24 C         148.5506  142.0576  155.0207 C.ar    1  UNL1       -0.0261
     25 C         150.0055  141.7124  155.1394 C.ar    1  UNL1       -0.0046
     26 C         151.0008  142.3256  154.1997 C.ar    1  UNL1       -0.0003
     27 C         150.5413  143.2840  153.1412 C.ar    1  UNL1       -0.0003
     28 C         149.0865  143.6291  153.0224 C.ar    1  UNL1       -0.0046
     29 C         148.0911  143.0160  153.9622 C.ar    1  UNL1       -0.0261
     30 C         146.6036  143.1650  154.0860 C.3     1  UNL1        0.0277
@<TRIPOS>BOND
     1    19    20    1
     2     1    20    1
     3     1     7    1
     4     7     8   ar
     5     8     9   ar
     6     9    10   ar
     7    10    11   ar
     8    11    13    1
     9    13    15    1
    10    15    16    1
    11    15    17    2
    12    15    18    2
    13    11    12   ar
    14     1     2    1
    15     2     3    1
    16     3     4    1
    17     4    21    1
    18    21    22    1
    19    22    23    1
    20    23    24    1
    21    24    25   ar
    22    25    26   ar
    23    26    27   ar
    24    27    28   ar
    25    28    29   ar
    26    29    30    1
    27     4     5    1
    28     6     5    1
    29     6     1    1
    30    12     7   ar
    31     6     2    1
    32    30    22    1
    33    29    24   ar
    34    13    14    1
