@<TRIPOS>MOLECULE
*****
 38 42 0 0 0
SMALL
GASTEIGER

@<TRIPOS>ATOM
      1 C         140.9482  141.6881  165.6518 C.3     1  UNL1        0.0761
      2 C         139.9747  143.8691  164.6290 C.ar    1  UNL1        0.1351
      3 C         139.8468  144.8181  163.4746 C.ar    1  UNL1        0.0366
      4 C         140.5647  144.5354  162.1881 C.ar    1  UNL1        0.0030
      5 C         140.4368  145.4844  161.0336 C.ar    1  UNL1        0.0006
      6 C         141.1546  145.2017  159.7473 C.ar    1  UNL1        0.0067
      7 C         142.0003  143.9698  159.6155 C.ar    1  UNL1        0.0346
      8 BR        142.7182  143.6871  158.3290 Br      1  UNL1       -0.0490
      9 C         142.1282  143.0208  160.7699 C.ar    1  UNL1        0.0067
     10 C         141.4104  143.3035  162.0563 C.ar    1  UNL1        0.0004
     11 C         141.5382  142.3545  163.2109 C.ar    1  UNL1       -0.0009
     12 C         140.8204  142.6372  164.4972 C.ar    1  UNL1        0.0181
     13 C         138.1556  145.1696  165.9518 C.3     1  UNL1        0.2525
     14 O         139.2568  144.1518  165.9155 O.3     1  UNL1       -0.4717
     15 C         140.0453  140.4939  165.7445 C.ar    1  UNL1       -0.0160
     16 C         139.3235  140.1971  167.0254 C.ar    1  UNL1       -0.0039
     17 C         138.4206  139.0029  167.1181 C.ar    1  UNL1       -0.0006
     18 C         138.2394  138.1055  165.9299 C.ar    1  UNL1       -0.0043
     19 C         138.9612  138.4024  164.6489 C.ar    1  UNL1       -0.0222
     20 C         138.7801  137.5051  163.4607 C.3     1  UNL1        0.0310
     21 C         139.8642  139.5966  164.5562 C.ar    1  UNL1       -0.0081
     22 C         141.9790  141.9333  166.7136 C.3     1  UNL1        0.1187
     23 O         141.0510  142.8969  167.3920 O.3     1  UNL1       -0.3819
     24 H         141.2219  142.8926  168.3468 H       1  UNL1        0.2107
     25 C         142.9070  140.9697  166.0351 C.ar    1  UNL1        0.0395
     26 C         142.8179  139.5032  166.3378 C.ar    1  UNL1        0.0012
     27 C         143.7459  138.5397  165.6594 C.ar    1  UNL1        0.0031
     28 C         144.7630  139.0425  164.6783 C.ar    1  UNL1        0.0402
     29 C         144.8522  140.5089  164.3756 C.ar    1  UNL1        0.1762
     30 C         143.9241  141.4726  165.0541 C.ar    1  UNL1        0.1746
     31 O         144.2448  142.8516  164.5588 O.3     1  UNL1       -0.4349
     32 C         145.3710  142.7404  163.5743 C.3     1  UNL1        0.4294
     33 O         145.7464  141.2925  163.4611 O.3     1  UNL1       -0.4346
     34 C         143.0097  142.1784  167.7753 C.3     1  UNL1        0.0492
     35 C         142.5817  142.4676  169.1836 C.3     1  UNL1        0.0750
     36 N         141.8369  141.4293  169.9693 N.3     1  UNL1       -0.2702
     37 C         140.6291  141.8177  170.7695 C.3     1  UNL1        0.0897
     38 C         142.2998  140.0026  169.9547 C.3     1  UNL1        0.0897
@<TRIPOS>BOND
     1    13    14    1
     2    14     2    1
     3     2     3   ar
     4     3     4   ar
     5     4     5   ar
     6     5     6   ar
     7     6     7   ar
     8     7     8    1
     9     7     9   ar
    10     9    10   ar
    11    10    11   ar
    12    11    12   ar
    13     1    12    1
    14     1    15    1
    15    15    16   ar
    16    16    17   ar
    17    17    18   ar
    18    18    19   ar
    19    19    20    1
    20    19    21   ar
    21     1    22    1
    22    22    23    1
    23    22    34    1
    24    34    35    1
    25    35    36    1
    26    36    37    1
    27    36    38    1
    28    22    25    1
    29    25    26   ar
    30    26    27   ar
    31    27    28   ar
    32    28    29   ar
    33    29    30   ar
    34    30    31    1
    35    31    32    1
    36    32    33    1
    37    12     2   ar
    38    21    15   ar
    39    30    25   ar
    40    10     4   ar
    41    33    29    1
    42    23    24    1
@<TRIPOS>MOLECULE
*****
 38 42 0 0 0
SMALL
GASTEIGER

@<TRIPOS>ATOM
      1 C         141.5026  140.4203  166.0086 C.3     1  UNL1        0.0761
      2 C         143.3486  139.2259  164.6245 C.ar    1  UNL1        0.1351
      3 C         143.8826  138.7559  163.3040 C.ar    1  UNL1        0.0366
      4 C         143.1047  139.0102  162.0469 C.ar    1  UNL1        0.0030
      5 C         143.6387  138.5402  160.7264 C.ar    1  UNL1        0.0006
      6 C         142.8608  138.7945  159.4694 C.ar    1  UNL1        0.0067
      7 C         141.5489  139.5189  159.5329 C.ar    1  UNL1        0.0346
      8 BR        140.7709  139.7732  158.2758 Br      1  UNL1       -0.0490
      9 C         141.0148  139.9889  160.8534 C.ar    1  UNL1        0.0067
     10 C         141.7927  139.7346  162.1104 C.ar    1  UNL1        0.0004
     11 C         141.2587  140.2046  163.4310 C.ar    1  UNL1       -0.0009
     12 C         142.0366  139.9503  164.6880 C.ar    1  UNL1        0.0181
     13 C         143.9951  137.6570  166.5919 C.3     1  UNL1        0.2525
     14 O         144.1265  138.9716  165.8816 O.3     1  UNL1       -0.4717
     15 C         140.2268  139.8457  166.5491 C.ar    1  UNL1       -0.0160
     16 C         139.3741  138.9666  165.6831 C.ar    1  UNL1       -0.0039
     17 C         138.0983  138.3920  166.2236 C.ar    1  UNL1       -0.0006
     18 C         137.6751  138.6966  167.6300 C.ar    1  UNL1       -0.0043
     19 C         138.5278  139.5758  168.4961 C.ar    1  UNL1       -0.0222
     20 C         138.1046  139.8803  169.9025 C.3     1  UNL1        0.0310
     21 C         139.8036  140.1504  167.9556 C.ar    1  UNL1       -0.0081
     22 C         142.2444  141.4649  166.7887 C.3     1  UNL1        0.1187
     23 O         142.7392  140.4090  167.7321 O.3     1  UNL1       -0.3819
     24 H         143.6047  140.6697  168.0841 H       1  UNL1        0.2107
     25 C         141.7496  142.5208  165.8453 C.ar    1  UNL1        0.0395
     26 C         140.3423  143.0277  165.9583 C.ar    1  UNL1        0.0012
     27 C         139.8475  144.0837  165.0148 C.ar    1  UNL1        0.0031
     28 C         140.7598  144.6328  163.9584 C.ar    1  UNL1        0.0402
     29 C         142.1671  144.1259  163.8454 C.ar    1  UNL1        0.1762
     30 C         142.6620  143.0699  164.7888 C.ar    1  UNL1        0.1746
     31 O         144.0885  142.7668  164.4382 O.3     1  UNL1       -0.4349
     32 C         144.4754  143.6354  163.2781 C.3     1  UNL1        0.4294
     33 O         143.2878  144.4754  162.9117 O.3     1  UNL1       -0.4346
     34 C         142.9862  142.5095  167.5688 C.3     1  UNL1        0.0492
     35 C         143.1147  142.3831  169.0579 C.3     1  UNL1        0.0750
     36 N         141.8873  142.3940  169.9202 N.3     1  UNL1       -0.2702
     37 C         141.7630  141.4269  171.0601 C.3     1  UNL1        0.0897
     38 C         140.7843  143.3719  169.6426 C.3     1  UNL1        0.0897
@<TRIPOS>BOND
     1    13    14    1
     2    14     2    1
     3     2     3   ar
     4     3     4   ar
     5     4     5   ar
     6     5     6   ar
     7     6     7   ar
     8     7     8    1
     9     7     9   ar
    10     9    10   ar
    11    10    11   ar
    12    11    12   ar
    13     1    12    1
    14     1    15    1
    15    15    16   ar
    16    16    17   ar
    17    17    18   ar
    18    18    19   ar
    19    19    20    1
    20    19    21   ar
    21     1    22    1
    22    22    23    1
    23    22    34    1
    24    34    35    1
    25    35    36    1
    26    36    37    1
    27    36    38    1
    28    22    25    1
    29    25    26   ar
    30    26    27   ar
    31    27    28   ar
    32    28    29   ar
    33    29    30   ar
    34    30    31    1
    35    31    32    1
    36    32    33    1
    37    12     2   ar
    38    21    15   ar
    39    30    25   ar
    40    10     4   ar
    41    33    29    1
    42    23    24    1
@<TRIPOS>MOLECULE
*****
 38 42 0 0 0
SMALL
GASTEIGER

@<TRIPOS>ATOM
      1 C         139.5637  140.6865  164.4362 C.3     1  UNL1        0.0761
      2 C         139.0893  139.9412  166.8795 C.ar    1  UNL1        0.1351
      3 C         139.4706  139.9254  168.3301 C.ar    1  UNL1        0.0366
      4 C         140.7079  140.6392  168.7881 C.ar    1  UNL1        0.0030
      5 C         141.0892  140.6234  170.2387 C.ar    1  UNL1        0.0006
      6 C         142.3264  141.3373  170.6967 C.ar    1  UNL1        0.0067
      7 C         143.1822  142.0669  169.7041 C.ar    1  UNL1        0.0346
      8 BR        144.4194  142.7807  170.1622 Br      1  UNL1       -0.0490
      9 C         142.8008  142.0826  168.2536 C.ar    1  UNL1        0.0067
     10 C         141.5637  141.3688  167.7955 C.ar    1  UNL1        0.0004
     11 C         141.1823  141.3846  166.3449 C.ar    1  UNL1       -0.0009
     12 C         139.9451  140.6708  165.8869 C.ar    1  UNL1        0.0181
     13 C         137.6404  137.7868  166.7820 C.3     1  UNL1        0.2525
     14 O         137.8520  139.2273  166.4214 O.3     1  UNL1       -0.4717
     15 C         139.1489  141.9719  163.7837 C.ar    1  UNL1       -0.0160
     16 C         138.2132  142.9053  164.4931 C.ar    1  UNL1       -0.0039
     17 C         137.7984  144.1907  163.8406 C.ar    1  UNL1       -0.0006
     18 C         138.3193  144.5427  162.4788 C.ar    1  UNL1       -0.0043
     19 C         139.2550  143.6092  161.7693 C.ar    1  UNL1       -0.0222
     20 C         139.7758  143.9612  160.4074 C.3     1  UNL1        0.0310
     21 C         139.6698  142.3239  162.4218 C.ar    1  UNL1       -0.0081
     22 C         139.5971  139.4169  163.6381 C.3     1  UNL1        0.1187
     23 O         138.1471  139.5932  163.2970 O.3     1  UNL1       -0.3819
     24 H         137.9685  139.1972  162.4297 H       1  UNL1        0.2107
     25 C         141.0471  139.2407  163.9792 C.ar    1  UNL1        0.0395
     26 C         141.4443  138.3910  165.1499 C.ar    1  UNL1        0.0012
     27 C         142.8943  138.2147  165.4910 C.ar    1  UNL1        0.0031
     28 C         143.9471  138.8880  164.6615 C.ar    1  UNL1        0.0402
     29 C         143.5500  139.7377  163.4909 C.ar    1  UNL1        0.1762
     30 C         142.1000  139.9140  163.1497 C.ar    1  UNL1        0.1746
     31 O         142.0120  140.8047  161.9461 O.3     1  UNL1       -0.4349
     32 C         143.4076  141.1789  161.5433 C.3     1  UNL1        0.4294
     33 O         144.3581  140.5194  162.4981 O.3     1  UNL1       -0.4346
     34 C         139.6305  138.1474  162.8400 C.3     1  UNL1        0.0492
     35 C         138.8507  138.0436  161.5628 C.3     1  UNL1        0.0750
     36 N         139.2432  138.8715  160.3751 N.3     1  UNL1       -0.2702
     37 C         140.5723  138.6534  159.7150 C.3     1  UNL1        0.0897
     38 C         138.3065  139.9176  159.8476 C.3     1  UNL1        0.0897
@<TRIPOS>BOND
     1    13    14    1
     2    14     2    1
     3     2     3   ar
     4     3     4   ar
     5     4     5   ar
     6     5     6   ar
     7     6     7   ar
     8     7     8    1
     9     7     9   ar
    10     9    10   ar
    11    10    11   ar
    12    11    12   ar
    13     1    12    1
    14     1    15    1
    15    15    16   ar
    16    16    17   ar
    17    17    18   ar
    18    18    19   ar
    19    19    20    1
    20    19    21   ar
    21     1    22    1
    22    22    23    1
    23    22    34    1
    24    34    35    1
    25    35    36    1
    26    36    37    1
    27    36    38    1
    28    22    25    1
    29    25    26   ar
    30    26    27   ar
    31    27    28   ar
    32    28    29   ar
    33    29    30   ar
    34    30    31    1
    35    31    32    1
    36    32    33    1
    37    12     2   ar
    38    21    15   ar
    39    30    25   ar
    40    10     4   ar
    41    33    29    1
    42    23    24    1
@<TRIPOS>MOLECULE
*****
 38 42 0 0 0
SMALL
GASTEIGER

@<TRIPOS>ATOM
      1 C         140.1437  141.0067  164.5245 C.3     1  UNL1        0.0761
      2 C         142.0157  139.2909  163.9750 C.ar    1  UNL1        0.1351
      3 C         142.7617  138.4580  162.9753 C.ar    1  UNL1        0.0366
      4 C         142.3818  138.5078  161.5250 C.ar    1  UNL1        0.0030
      5 C         143.1278  137.6749  160.5252 C.ar    1  UNL1        0.0006
      6 C         142.7479  137.7247  159.0750 C.ar    1  UNL1        0.0067
      7 C         141.6220  138.6075  158.6246 C.ar    1  UNL1        0.0346
      8 BR        141.2421  138.6574  157.1743 Br      1  UNL1       -0.0490
      9 C         140.8759  139.4405  159.6244 C.ar    1  UNL1        0.0067
     10 C         141.2559  139.3906  161.0746 C.ar    1  UNL1        0.0004
     11 C         140.5098  140.2236  162.0744 C.ar    1  UNL1       -0.0009
     12 C         140.8897  140.1737  163.5246 C.ar    1  UNL1        0.0181
     13 C         143.6999  138.6259  165.8383 C.3     1  UNL1        0.2525
     14 O         142.3956  139.2411  165.4253 O.3     1  UNL1       -0.4717
     15 C         139.4737  140.3514  165.6956 C.ar    1  UNL1       -0.0160
     16 C         138.4701  139.2594  165.4711 C.ar    1  UNL1       -0.0039
     17 C         137.8001  138.6041  166.6422 C.ar    1  UNL1       -0.0006
     18 C         138.1336  139.0408  168.0380 C.ar    1  UNL1       -0.0043
     19 C         139.1372  140.1328  168.2626 C.ar    1  UNL1       -0.0222
     20 C         139.4707  140.5694  169.6583 C.3     1  UNL1        0.0310
     21 C         139.8072  140.7881  167.0914 C.ar    1  UNL1       -0.0081
     22 C         140.0677  142.4949  164.3531 C.3     1  UNL1        0.1187
     23 O         138.5946  142.3895  164.0908 O.3     1  UNL1       -0.3819
     24 H         138.1541  143.2004  164.3898 H       1  UNL1        0.2107
     25 C         141.5408  142.6003  164.6155 C.ar    1  UNL1        0.0395
     26 C         142.0662  142.4531  166.0127 C.ar    1  UNL1        0.0012
     27 C         143.5393  142.5585  166.2751 C.ar    1  UNL1        0.0031
     28 C         144.4870  142.8112  165.1402 C.ar    1  UNL1        0.0402
     29 C         143.9617  142.9584  163.7430 C.ar    1  UNL1        0.1762
     30 C         142.4885  142.8530  163.4806 C.ar    1  UNL1        0.1746
     31 O         142.2652  143.0400  162.0091 O.3     1  UNL1       -0.4349
     32 C         143.6003  143.2609  161.3621 C.3     1  UNL1        0.4294
     33 O         144.6488  143.2105  162.4336 O.3     1  UNL1       -0.4346
     34 C         139.9917  143.9831  164.1818 C.3     1  UNL1        0.0492
     35 C         139.0178  144.5772  163.2079 C.3     1  UNL1        0.0750
     36 N         139.3419  144.6016  161.7435 N.3     1  UNL1       -0.2702
     37 C         140.0105  145.8027  161.1432 C.3     1  UNL1        0.0897
     38 C         138.9973  143.4249  160.8794 C.3     1  UNL1        0.0897
@<TRIPOS>BOND
     1    13    14    1
     2    14     2    1
     3     2     3   ar
     4     3     4   ar
     5     4     5   ar
     6     5     6   ar
     7     6     7   ar
     8     7     8    1
     9     7     9   ar
    10     9    10   ar
    11    10    11   ar
    12    11    12   ar
    13     1    12    1
    14     1    15    1
    15    15    16   ar
    16    16    17   ar
    17    17    18   ar
    18    18    19   ar
    19    19    20    1
    20    19    21   ar
    21     1    22    1
    22    22    23    1
    23    22    34    1
    24    34    35    1
    25    35    36    1
    26    36    37    1
    27    36    38    1
    28    22    25    1
    29    25    26   ar
    30    26    27   ar
    31    27    28   ar
    32    28    29   ar
    33    29    30   ar
    34    30    31    1
    35    31    32    1
    36    32    33    1
    37    12     2   ar
    38    21    15   ar
    39    30    25   ar
    40    10     4   ar
    41    33    29    1
    42    23    24    1
@<TRIPOS>MOLECULE
*****
 38 42 0 0 0
SMALL
GASTEIGER

@<TRIPOS>ATOM
      1 C         141.4336  140.5657  164.5954 C.3     1  UNL1        0.0761
      2 C         143.2181  140.6546  162.7092 C.ar    1  UNL1        0.1351
      3 C         143.5958  140.9692  161.2921 C.ar    1  UNL1        0.0366
      4 C         142.5667  141.5097  160.3439 C.ar    1  UNL1        0.0030
      5 C         142.9444  141.8243  158.9267 C.ar    1  UNL1        0.0006
      6 C         141.9153  142.3647  157.9786 C.ar    1  UNL1        0.0067
      7 C         140.5086  142.5905  158.4477 C.ar    1  UNL1        0.0346
      8 BR        139.4795  143.1309  157.4995 Br      1  UNL1       -0.0490
      9 C         140.1308  142.2758  159.8648 C.ar    1  UNL1        0.0067
     10 C         141.1599  141.7354  160.8129 C.ar    1  UNL1        0.0004
     11 C         140.7822  141.4208  162.2301 C.ar    1  UNL1       -0.0009
     12 C         141.8113  140.8804  163.1782 C.ar    1  UNL1        0.0181
     13 C         145.4692  140.9226  163.9783 C.3     1  UNL1        0.2525
     14 O         144.2471  140.1142  163.6574 O.3     1  UNL1       -0.4717
     15 C         140.4645  139.4580  164.8850 C.ar    1  UNL1       -0.0160
     16 C         140.4798  138.2111  164.0515 C.ar    1  UNL1       -0.0039
     17 C         139.5108  137.1034  164.3411 C.ar    1  UNL1       -0.0006
     18 C         138.5264  137.2426  165.4643 C.ar    1  UNL1       -0.0043
     19 C         138.5110  138.4896  166.2979 C.ar    1  UNL1       -0.0222
     20 C         137.5266  138.6289  167.4210 C.3     1  UNL1        0.0310
     21 C         139.4801  139.5973  166.0083 C.ar    1  UNL1       -0.0081
     22 C         142.0249  141.3588  165.7229 C.3     1  UNL1        0.1187
     23 O         142.7765  140.1448  166.1826 O.3     1  UNL1       -0.3819
     24 H         143.6024  140.4189  166.6112 H       1  UNL1        0.2107
     25 C         141.2734  142.5728  165.2632 C.ar    1  UNL1        0.0395
     26 C         139.8082  142.7036  165.5568 C.ar    1  UNL1        0.0012
     27 C         139.0566  143.9176  165.0972 C.ar    1  UNL1        0.0031
     28 C         139.7702  145.0008  164.3439 C.ar    1  UNL1        0.0402
     29 C         141.2353  144.8700  164.0503 C.ar    1  UNL1        0.1762
     30 C         141.9870  143.6560  164.5100 C.ar    1  UNL1        0.1746
     31 O         143.4155  143.8038  164.0772 O.3     1  UNL1       -0.4349
     32 C         143.5469  145.1092  163.3500 C.3     1  UNL1        0.4294
     33 O         142.1994  145.7681  163.3334 O.3     1  UNL1       -0.4346
     34 C         142.6163  142.1518  166.8504 C.3     1  UNL1        0.0492
     35 C         142.6670  141.5689  168.2316 C.3     1  UNL1        0.0750
     36 N         141.3956  141.2007  168.9374 N.3     1  UNL1       -0.2702
     37 C         141.1595  139.7829  169.3663 C.3     1  UNL1        0.0897
     38 C         140.3604  142.2503  169.2142 C.3     1  UNL1        0.0897
@<TRIPOS>BOND
     1    13    14    1
     2    14     2    1
     3     2     3   ar
     4     3     4   ar
     5     4     5   ar
     6     5     6   ar
     7     6     7   ar
     8     7     8    1
     9     7     9   ar
    10     9    10   ar
    11    10    11   ar
    12    11    12   ar
    13     1    12    1
    14     1    15    1
    15    15    16   ar
    16    16    17   ar
    17    17    18   ar
    18    18    19   ar
    19    19    20    1
    20    19    21   ar
    21     1    22    1
    22    22    23    1
    23    22    34    1
    24    34    35    1
    25    35    36    1
    26    36    37    1
    27    36    38    1
    28    22    25    1
    29    25    26   ar
    30    26    27   ar
    31    27    28   ar
    32    28    29   ar
    33    29    30   ar
    34    30    31    1
    35    31    32    1
    36    32    33    1
    37    12     2   ar
    38    21    15   ar
    39    30    25   ar
    40    10     4   ar
    41    33    29    1
    42    23    24    1
@<TRIPOS>MOLECULE
*****
 38 42 0 0 0
SMALL
GASTEIGER

@<TRIPOS>ATOM
      1 C         140.2397  139.9942  164.3814 C.3     1  UNL1        0.0761
      2 C         139.1204  139.5241  166.6784 C.ar    1  UNL1        0.1351
      3 C         139.0452  139.7558  168.1585 C.ar    1  UNL1        0.0366
      4 C         140.0142  140.6892  168.8217 C.ar    1  UNL1        0.0030
      5 C         139.9390  140.9209  170.3018 C.ar    1  UNL1        0.0006
      6 C         140.9079  141.8543  170.9650 C.ar    1  UNL1        0.0067
      7 C         141.9520  142.5561  170.1481 C.ar    1  UNL1        0.0346
      8 BR        142.9210  143.4895  170.8114 Br      1  UNL1       -0.0490
      9 C         142.0272  142.3244  168.6680 C.ar    1  UNL1        0.0067
     10 C         141.0583  141.3910  168.0049 C.ar    1  UNL1        0.0004
     11 C         141.1335  141.1593  166.5247 C.ar    1  UNL1       -0.0009
     12 C         140.1645  140.2259  165.8615 C.ar    1  UNL1        0.0181
     13 C         137.4721  137.5206  166.8173 C.3     1  UNL1        0.2525
     14 O         138.1514  138.5907  166.0151 O.3     1  UNL1       -0.4717
     15 C         141.5427  139.6048  163.7484 C.ar    1  UNL1       -0.0160
     16 C         141.6078  138.4152  162.8371 C.ar    1  UNL1       -0.0039
     17 C         142.9108  138.0257  162.2041 C.ar    1  UNL1       -0.0006
     18 C         144.1486  138.8258  162.4826 C.ar    1  UNL1       -0.0043
     19 C         144.0835  140.0154  163.3940 C.ar    1  UNL1       -0.0222
     20 C         145.3214  140.8155  163.6725 C.3     1  UNL1        0.0310
     21 C         142.7806  140.4049  164.0269 C.ar    1  UNL1       -0.0081
     22 C         139.0120  140.1520  163.5342 C.3     1  UNL1        0.1187
     23 O         138.8984  138.6607  163.4210 O.3     1  UNL1       -0.3819
     24 H         137.9654  138.4139  163.3237 H       1  UNL1        0.2107
     25 C         139.1255  141.6434  163.6475 C.ar    1  UNL1        0.0395
     26 C         138.3697  142.3740  164.7176 C.ar    1  UNL1        0.0012
     27 C         138.4833  143.8654  164.8309 C.ar    1  UNL1        0.0031
     28 C         139.3525  144.6262  163.8741 C.ar    1  UNL1        0.0402
     29 C         140.1083  143.8957  162.8040 C.ar    1  UNL1        0.1762
     30 C         139.9948  142.4042  162.6907 C.ar    1  UNL1        0.1746
     31 O         140.8520  141.9600  161.5427 O.3     1  UNL1       -0.4349
     32 C         141.4952  143.1768  160.9465 C.3     1  UNL1        0.4294
     33 O         141.0356  144.3731  161.7260 O.3     1  UNL1       -0.4346
     34 C         137.7842  140.3098  162.6871 C.3     1  UNL1        0.0492
     35 C         137.5793  139.4272  161.4917 C.3     1  UNL1        0.0750
     36 N         138.4465  139.5935  160.2791 N.3     1  UNL1       -0.2702
     37 C         138.2945  140.8058  159.4088 C.3     1  UNL1        0.0897
     38 C         139.4658  138.5477  159.9369 C.3     1  UNL1        0.0897
@<TRIPOS>BOND
     1    13    14    1
     2    14     2    1
     3     2     3   ar
     4     3     4   ar
     5     4     5   ar
     6     5     6   ar
     7     6     7   ar
     8     7     8    1
     9     7     9   ar
    10     9    10   ar
    11    10    11   ar
    12    11    12   ar
    13     1    12    1
    14     1    15    1
    15    15    16   ar
    16    16    17   ar
    17    17    18   ar
    18    18    19   ar
    19    19    20    1
    20    19    21   ar
    21     1    22    1
    22    22    23    1
    23    22    34    1
    24    34    35    1
    25    35    36    1
    26    36    37    1
    27    36    38    1
    28    22    25    1
    29    25    26   ar
    30    26    27   ar
    31    27    28   ar
    32    28    29   ar
    33    29    30   ar
    34    30    31    1
    35    31    32    1
    36    32    33    1
    37    12     2   ar
    38    21    15   ar
    39    30    25   ar
    40    10     4   ar
    41    33    29    1
    42    23    24    1
@<TRIPOS>MOLECULE
*****
 38 42 0 0 0
SMALL
GASTEIGER

@<TRIPOS>ATOM
      1 C         140.7826  141.7761  165.2650 C.3     1  UNL1        0.0761
      2 C         139.8994  144.0503  164.3717 C.ar    1  UNL1        0.1351
      3 C         139.7264  145.0242  163.2441 C.ar    1  UNL1        0.0366
      4 C         140.2636  144.6980  161.8821 C.ar    1  UNL1        0.0030
      5 C         140.0906  145.6719  160.7546 C.ar    1  UNL1        0.0006
      6 C         140.6279  145.3456  159.3927 C.ar    1  UNL1        0.0067
      7 C         141.3381  144.0454  159.1583 C.ar    1  UNL1        0.0346
      8 BR        141.8754  143.7191  157.7963 Br      1  UNL1       -0.0490
      9 C         141.5111  143.0715  160.2859 C.ar    1  UNL1        0.0067
     10 C         140.9739  143.3977  161.6478 C.ar    1  UNL1        0.0004
     11 C         141.1469  142.4238  162.7755 C.ar    1  UNL1       -0.0009
     12 C         140.6096  142.7501  164.1374 C.ar    1  UNL1        0.0181
     13 C         138.0572  145.1035  165.8708 C.3     1  UNL1        0.2525
     14 O         139.3621  144.3766  165.7337 O.3     1  UNL1       -0.4717
     15 C         140.1165  140.4334  165.2052 C.ar    1  UNL1       -0.0160
     16 C         140.4596  139.4744  164.1041 C.ar    1  UNL1       -0.0039
     17 C         139.7934  138.1318  164.0442 C.ar    1  UNL1       -0.0006
     18 C         138.7843  137.7481  165.0855 C.ar    1  UNL1       -0.0043
     19 C         138.4412  138.7072  166.1867 C.ar    1  UNL1       -0.0222
     20 C         137.4320  138.3235  167.2280 C.3     1  UNL1        0.0310
     21 C         139.1073  140.0498  166.2466 C.ar    1  UNL1       -0.0081
     22 C         141.6217  142.1448  166.4524 C.3     1  UNL1        0.1187
     23 O         140.3873  142.2203  167.3012 O.3     1  UNL1       -0.3819
     24 H         140.6099  141.9900  168.2168 H       1  UNL1        0.2107
     25 C         142.8561  142.0692  165.6036 C.ar    1  UNL1        0.0395
     26 C         143.3984  143.3091  164.9565 C.ar    1  UNL1        0.0012
     27 C         144.6328  143.2335  164.1077 C.ar    1  UNL1        0.0031
     28 C         145.3249  141.9182  163.9060 C.ar    1  UNL1        0.0402
     29 C         144.7827  140.6783  164.5531 C.ar    1  UNL1        0.1762
     30 C         143.5482  140.7538  165.4019 C.ar    1  UNL1        0.1746
     31 O         143.2491  139.3741  165.9088 O.3     1  UNL1       -0.4349
     32 C         144.2986  138.4459  165.3732 C.3     1  UNL1        0.4294
     33 O         145.2464  139.2519  164.5353 O.3     1  UNL1       -0.4346
     34 C         142.4607  142.5135  167.6398 C.3     1  UNL1        0.0492
     35 C         141.8593  142.5082  169.0140 C.3     1  UNL1        0.0750
     36 N         141.7820  141.2292  169.7939 N.3     1  UNL1       -0.2702
     37 C         140.9096  141.1447  171.0113 C.3     1  UNL1        0.0897
     38 C         142.5769  140.0348  169.3565 C.3     1  UNL1        0.0897
@<TRIPOS>BOND
     1    13    14    1
     2    14     2    1
     3     2     3   ar
     4     3     4   ar
     5     4     5   ar
     6     5     6   ar
     7     6     7   ar
     8     7     8    1
     9     7     9   ar
    10     9    10   ar
    11    10    11   ar
    12    11    12   ar
    13     1    12    1
    14     1    15    1
    15    15    16   ar
    16    16    17   ar
    17    17    18   ar
    18    18    19   ar
    19    19    20    1
    20    19    21   ar
    21     1    22    1
    22    22    23    1
    23    22    34    1
    24    34    35    1
    25    35    36    1
    26    36    37    1
    27    36    38    1
    28    22    25    1
    29    25    26   ar
    30    26    27   ar
    31    27    28   ar
    32    28    29   ar
    33    29    30   ar
    34    30    31    1
    35    31    32    1
    36    32    33    1
    37    12     2   ar
    38    21    15   ar
    39    30    25   ar
    40    10     4   ar
    41    33    29    1
    42    23    24    1
@<TRIPOS>MOLECULE
*****
 38 42 0 0 0
SMALL
GASTEIGER

@<TRIPOS>ATOM
      1 C         140.8704  141.0593  162.5935 C.3     1  UNL1        0.0761
      2 C         140.2167  139.4252  164.5047 C.ar    1  UNL1        0.1351
      3 C         139.9504  139.1659  165.9579 C.ar    1  UNL1        0.0366
      4 C         140.0714  140.2816  166.9533 C.ar    1  UNL1        0.0030
      5 C         139.8050  140.0224  168.4065 C.ar    1  UNL1        0.0006
      6 C         139.9260  141.1380  169.4018 C.ar    1  UNL1        0.0067
      7 C         140.3133  142.5129  168.9439 C.ar    1  UNL1        0.0346
      8 BR        140.4343  143.6286  169.9392 Br      1  UNL1       -0.0490
      9 C         140.5797  142.7721  167.4907 C.ar    1  UNL1        0.0067
     10 C         140.4587  141.6565  166.4954 C.ar    1  UNL1        0.0004
     11 C         140.7250  141.9157  165.0421 C.ar    1  UNL1       -0.0009
     12 C         140.6040  140.8000  164.0468 C.ar    1  UNL1        0.0181
     13 C         138.7504  137.7217  163.2015 C.3     1  UNL1        0.2525
     14 O         140.0957  138.3095  163.5093 O.3     1  UNL1       -0.4717
     15 C         142.2450  141.4548  162.1419 C.ar    1  UNL1       -0.0160
     16 C         142.4600  141.9564  160.7447 C.ar    1  UNL1       -0.0039
     17 C         143.8346  142.3519  160.2931 C.ar    1  UNL1       -0.0006
     18 C         144.9942  142.2459  161.2386 C.ar    1  UNL1       -0.0043
     19 C         144.7792  141.7444  162.6359 C.ar    1  UNL1       -0.0222
     20 C         145.9388  141.6384  163.5814 C.3     1  UNL1        0.0310
     21 C         143.4046  141.3488  163.0875 C.ar    1  UNL1       -0.0081
     22 C         139.7621  140.9229  161.5920 C.3     1  UNL1        0.1187
     23 O         140.4928  139.7879  160.9379 O.3     1  UNL1       -0.3819
     24 H         139.8523  139.1759  160.5429 H       1  UNL1        0.2107
     25 C         139.0314  142.0579  162.2460 C.ar    1  UNL1        0.0395
     26 C         137.9842  141.7774  163.2828 C.ar    1  UNL1        0.0012
     27 C         137.2535  142.9124  163.9369 C.ar    1  UNL1        0.0031
     28 C         137.5699  144.3279  163.5542 C.ar    1  UNL1        0.0402
     29 C         138.6169  144.6083  162.5174 C.ar    1  UNL1        0.1762
     30 C         139.3477  143.4733  161.8633 C.ar    1  UNL1        0.1746
     31 O         140.3222  144.0538  160.8818 O.3     1  UNL1       -0.4349
     32 C         140.1937  145.5475  160.9292 C.3     1  UNL1        0.4294
     33 O         139.1398  145.8902  161.9401 O.3     1  UNL1       -0.4346
     34 C         138.6539  140.7865  160.5904 C.3     1  UNL1        0.0492
     35 C         138.9751  140.6032  159.1367 C.3     1  UNL1        0.0750
     36 N         138.3487  141.5011  158.1112 N.3     1  UNL1       -0.2702
     37 C         137.2732  140.9731  157.2088 C.3     1  UNL1        0.0897
     38 C         138.7980  142.9269  157.9882 C.3     1  UNL1        0.0897
@<TRIPOS>BOND
     1    13    14    1
     2    14     2    1
     3     2     3   ar
     4     3     4   ar
     5     4     5   ar
     6     5     6   ar
     7     6     7   ar
     8     7     8    1
     9     7     9   ar
    10     9    10   ar
    11    10    11   ar
    12    11    12   ar
    13     1    12    1
    14     1    15    1
    15    15    16   ar
    16    16    17   ar
    17    17    18   ar
    18    18    19   ar
    19    19    20    1
    20    19    21   ar
    21     1    22    1
    22    22    23    1
    23    22    34    1
    24    34    35    1
    25    35    36    1
    26    36    37    1
    27    36    38    1
    28    22    25    1
    29    25    26   ar
    30    26    27   ar
    31    27    28   ar
    32    28    29   ar
    33    29    30   ar
    34    30    31    1
    35    31    32    1
    36    32    33    1
    37    12     2   ar
    38    21    15   ar
    39    30    25   ar
    40    10     4   ar
    41    33    29    1
    42    23    24    1
@<TRIPOS>MOLECULE
*****
 38 42 0 0 0
SMALL
GASTEIGER

@<TRIPOS>ATOM
      1 C         142.1237  140.8718  164.6425 C.3     1  UNL1        0.0761
      2 C         144.1844  141.0820  163.0742 C.ar    1  UNL1        0.1351
      3 C         144.7705  141.4366  161.7398 C.ar    1  UNL1        0.0366
      4 C         143.8819  141.9355  160.6390 C.ar    1  UNL1        0.0030
      5 C         144.4679  142.2900  159.3046 C.ar    1  UNL1        0.0006
      6 C         143.5794  142.7889  158.2039 C.ar    1  UNL1        0.0067
      7 C         142.1047  142.9332  158.4377 C.ar    1  UNL1        0.0346
      8 BR        141.2162  143.4321  157.3369 Br      1  UNL1       -0.0490
      9 C         141.5187  142.5787  159.7721 C.ar    1  UNL1        0.0067
     10 C         142.4073  142.0798  160.8728 C.ar    1  UNL1        0.0004
     11 C         141.8212  141.7252  162.2073 C.ar    1  UNL1       -0.0009
     12 C         142.7098  141.2264  163.3080 C.ar    1  UNL1        0.0181
     13 C         145.1325  139.1166  164.4843 C.3     1  UNL1        0.2525
     14 O         145.0730  140.5831  164.1750 O.3     1  UNL1       -0.4717
     15 C         141.1322  139.7516  164.7525 C.ar    1  UNL1       -0.0160
     16 C         141.2939  138.5214  163.9096 C.ar    1  UNL1       -0.0039
     17 C         140.3023  137.4013  164.0196 C.ar    1  UNL1       -0.0006
     18 C         139.1491  137.5113  164.9723 C.ar    1  UNL1       -0.0043
     19 C         138.9873  138.7416  165.8152 C.ar    1  UNL1       -0.0222
     20 C         137.8340  138.8516  166.7680 C.3     1  UNL1        0.0310
     21 C         139.9789  139.8617  165.7053 C.ar    1  UNL1       -0.0081
     22 C         142.5292  141.6373  165.8670 C.3     1  UNL1        0.1187
     23 O         142.7941  140.3476  166.5856 O.3     1  UNL1       -0.3819
     24 H         143.4972  140.4808  167.2405 H       1  UNL1        0.2107
     25 C         142.2644  142.9270  165.1484 C.ar    1  UNL1        0.0395
     26 C         143.4061  143.7186  164.5828 C.ar    1  UNL1        0.0012
     27 C         143.1412  145.0084  163.8642 C.ar    1  UNL1        0.0031
     28 C         141.7347  145.5065  163.7112 C.ar    1  UNL1        0.0402
     29 C         140.5930  144.7150  164.2768 C.ar    1  UNL1        0.1762
     30 C         140.8578  143.4252  164.9954 C.ar    1  UNL1        0.1746
     31 O         139.5404  142.8656  165.4440 O.3     1  UNL1       -0.4349
     32 C         138.4614  143.8094  165.0027 C.3     1  UNL1        0.4294
     33 O         139.1119  144.9524  164.2813 O.3     1  UNL1       -0.4346
     34 C         142.9348  142.4029  167.0915 C.3     1  UNL1        0.0492
     35 C         142.5757  141.8852  168.4528 C.3     1  UNL1        0.0750
     36 N         141.1479  141.9097  168.9120 N.3     1  UNL1       -0.2702
     37 C         140.4365  143.2196  169.0800 C.3     1  UNL1        0.0897
     38 C         140.4315  140.6244  169.2031 C.3     1  UNL1        0.0897
@<TRIPOS>BOND
     1    13    14    1
     2    14     2    1
     3     2     3   ar
     4     3     4   ar
     5     4     5   ar
     6     5     6   ar
     7     6     7   ar
     8     7     8    1
     9     7     9   ar
    10     9    10   ar
    11    10    11   ar
    12    11    12   ar
    13     1    12    1
    14     1    15    1
    15    15    16   ar
    16    16    17   ar
    17    17    18   ar
    18    18    19   ar
    19    19    20    1
    20    19    21   ar
    21     1    22    1
    22    22    23    1
    23    22    34    1
    24    34    35    1
    25    35    36    1
    26    36    37    1
    27    36    38    1
    28    22    25    1
    29    25    26   ar
    30    26    27   ar
    31    27    28   ar
    32    28    29   ar
    33    29    30   ar
    34    30    31    1
    35    31    32    1
    36    32    33    1
    37    12     2   ar
    38    21    15   ar
    39    30    25   ar
    40    10     4   ar
    41    33    29    1
    42    23    24    1
