@<TRIPOS>MOLECULE
*****
 35 39 0 0 0
SMALL
GASTEIGER

@<TRIPOS>ATOM
      1 C         143.6078  141.1180  160.7195 C.ar    1  UNL1        0.1769
      2 N         142.4906  142.0182  161.1569 N.ar    1  UNL1       -0.2061
      3 C         142.3718  141.9180  162.6489 C.ar    1  UNL1        0.1970
      4 C         141.4479  142.5786  163.6287 C.ar    1  UNL1        0.1680
      5 N         141.5680  142.2770  165.0933 N.ar    1  UNL1       -0.2259
      6 C         142.6117  141.3150  165.5778 C.ar    1  UNL1        0.1050
      7 C         143.5355  140.6544  164.5979 C.ar    1  UNL1        0.1214
      8 N         143.4156  140.9559  163.1335 N.ar    1  UNL1       -0.2055
      9 N         144.1795  140.4614  161.9410 N.ar    1  UNL1       -0.1472
     10 C         142.7317  141.0134  167.0423 C.ar    1  UNL1        0.0576
     11 C         142.6750  139.5937  167.5228 C.ar    1  UNL1        0.1049
     12 N         142.7950  139.2921  168.9874 N.ar    1  UNL1       -0.2124
     13 C         142.9718  140.4104  169.9713 C.ar    1  UNL1        0.2137
     14 N         143.0918  140.1089  171.4357 N.pl3   1  UNL1       -0.3274
     15 N         143.0286  141.8302  169.4907 N.ar    1  UNL1       -0.2124
     16 C         142.9085  142.1317  168.0262 C.ar    1  UNL1        0.1049
     17 H         143.0546  139.1771  171.7511 H       1  UNL1        0.1452
     18 H         143.2079  140.8429  172.0815 H       1  UNL1        0.1452
     19 N         140.4041  143.5408  163.1442 N.pl3   1  UNL1       -0.2857
     20 C         138.9493  143.2087  163.2969 C.3     1  UNL1        0.1243
     21 C         137.9056  144.1708  162.8124 C.3     1  UNL1        0.1636
     22 O         138.3166  145.4650  162.1751 O.3     1  UNL1       -0.3501
     23 C         139.7713  145.7971  162.0224 C.3     1  UNL1        0.1636
     24 C         140.8151  144.8350  162.5070 C.3     1  UNL1        0.1243
     25 C         144.0719  140.9106  159.3082 C.3     1  UNL1        0.1408
     26 N         142.7452  137.2733  157.0148 N.3     1  UNL1       -0.1565
     27 C         142.6518  137.2913  158.5118 C.3     1  UNL1        0.1128
     28 C         143.0941  138.5039  159.2762 C.3     1  UNL1        0.0918
     29 N         143.6297  139.6982  158.5438 N.3     1  UNL1       -0.2637
     30 C         143.7230  139.6801  157.0467 C.3     1  UNL1        0.0918
     31 C         143.2808  138.4677  156.2823 C.3     1  UNL1        0.1128
     32 C         141.8606  134.8485  155.4859 C.3     1  UNL1        0.1960
     33 S         142.3029  136.0609  156.2503 S.O2    1  UNL1        0.0457
     34 O         143.7015  135.5208  156.2978 O.2     1  UNL1       -0.1572
     35 O         140.9043  136.6010  156.2029 O.2     1  UNL1       -0.1572
@<TRIPOS>BOND
     1    32    33    1
     2    33    34    2
     3    33    35    2
     4    33    26    1
     5    26    27    1
     6    27    28    1
     7    28    29    1
     8    29    25    1
     9    25     1    1
    10     1     2   ar
    11     2     3   ar
    12     3     4   ar
    13     4    19    1
    14    19    20    1
    15    20    21    1
    16    21    22    1
    17    22    23    1
    18    23    24    1
    19     4     5   ar
    20     5     6   ar
    21     6    10    1
    22    10    11   ar
    23    11    12   ar
    24    12    13   ar
    25    13    14    1
    26    13    15   ar
    27    15    16   ar
    28     6     7   ar
    29     7     8   ar
    30     8     9   ar
    31    29    30    1
    32    30    31    1
    33    31    26    1
    34     9     1   ar
    35     8     3   ar
    36    24    19    1
    37    16    10   ar
    38    14    17    1
    39    14    18    1
@<TRIPOS>MOLECULE
*****
 35 39 0 0 0
SMALL
GASTEIGER

@<TRIPOS>ATOM
      1 C         143.3273  140.6462  160.7418 C.ar    1  UNL1        0.1769
      2 N         142.3195  141.6682  161.1777 N.ar    1  UNL1       -0.2061
      3 C         142.2415  141.6328  162.6752 C.ar    1  UNL1        0.1970
      4 C         141.4206  142.4162  163.6563 C.ar    1  UNL1        0.1680
      5 N         141.5594  142.1558  165.1270 N.ar    1  UNL1       -0.2259
      6 C         142.5189  141.1121  165.6166 C.ar    1  UNL1        0.1050
      7 C         143.3398  140.3287  164.6356 C.ar    1  UNL1        0.1214
      8 N         143.2011  140.5890  163.1649 N.ar    1  UNL1       -0.2055
      9 N         143.8722  139.9793  161.9700 N.ar    1  UNL1       -0.1472
     10 C         142.6577  140.8517  167.0874 C.ar    1  UNL1        0.0576
     11 C         142.6524  139.4433  167.6035 C.ar    1  UNL1        0.1049
     12 N         142.7911  139.1829  169.0742 N.ar    1  UNL1       -0.2124
     13 C         142.9352  140.3310  170.0288 C.ar    1  UNL1        0.2137
     14 N         143.0740  140.0706  171.4995 N.pl3   1  UNL1       -0.3274
     15 N         142.9406  141.7394  169.5126 N.ar    1  UNL1       -0.2124
     16 C         142.8018  141.9997  168.0419 C.ar    1  UNL1        0.1049
     17 H         143.0705  139.1463  171.8382 H       1  UNL1        0.1452
     18 H         143.1686  140.8241  172.1260 H       1  UNL1        0.1452
     19 N         140.4610  143.4600  163.1667 N.pl3   1  UNL1       -0.2857
     20 C         140.9753  144.6796  162.4610 C.3     1  UNL1        0.1243
     21 C         140.0156  145.7233  161.9714 C.3     1  UNL1        0.1636
     22 O         138.5417  145.5474  162.1876 O.3     1  UNL1       -0.3501
     23 C         138.0275  144.3278  162.8933 C.3     1  UNL1        0.1636
     24 C         138.9871  143.2841  163.3828 C.3     1  UNL1        0.1243
     25 C         143.7212  140.3443  159.3263 C.3     1  UNL1        0.1408
     26 N         140.7480  138.4732  156.5139 N.3     1  UNL1       -0.1565
     27 C         141.6199  137.6038  157.3706 C.3     1  UNL1        0.1128
     28 C         142.6110  138.2276  158.3081 C.3     1  UNL1        0.0918
     29 N         142.7301  139.7206  158.3888 N.3     1  UNL1       -0.2637
     30 C         141.8582  140.5900  157.5321 C.3     1  UNL1        0.0918
     31 C         140.8672  139.9663  156.5947 C.3     1  UNL1        0.1128
     32 C         138.7660  137.2259  154.6389 C.3     1  UNL1        0.1960
     33 S         139.7569  137.8496  155.5764 S.O2    1  UNL1        0.0457
     34 O         138.6516  138.6262  156.2284 O.2     1  UNL1       -0.1572
     35 O         140.8623  137.0730  154.9245 O.2     1  UNL1       -0.1572
@<TRIPOS>BOND
     1    32    33    1
     2    33    34    2
     3    33    35    2
     4    33    26    1
     5    26    27    1
     6    27    28    1
     7    28    29    1
     8    29    25    1
     9    25     1    1
    10     1     2   ar
    11     2     3   ar
    12     3     4   ar
    13     4    19    1
    14    19    20    1
    15    20    21    1
    16    21    22    1
    17    22    23    1
    18    23    24    1
    19     4     5   ar
    20     5     6   ar
    21     6    10    1
    22    10    11   ar
    23    11    12   ar
    24    12    13   ar
    25    13    14    1
    26    13    15   ar
    27    15    16   ar
    28     6     7   ar
    29     7     8   ar
    30     8     9   ar
    31    29    30    1
    32    30    31    1
    33    31    26    1
    34     9     1   ar
    35     8     3   ar
    36    24    19    1
    37    16    10   ar
    38    14    17    1
    39    14    18    1
@<TRIPOS>MOLECULE
*****
 35 39 0 0 0
SMALL
GASTEIGER

@<TRIPOS>ATOM
      1 C         142.8525  142.9244  160.8313 C.ar    1  UNL1        0.1769
      2 N         141.7570  141.9537  161.1593 N.ar    1  UNL1       -0.2061
      3 C         141.6363  141.8784  162.6526 C.ar    1  UNL1        0.1970
      4 C         140.7286  141.0877  163.5475 C.ar    1  UNL1        0.1680
      5 N         140.8419  141.2211  165.0373 N.ar    1  UNL1       -0.2259
      6 C         141.8627  142.1451  165.6321 C.ar    1  UNL1        0.1050
      7 C         142.7704  142.9358  164.7372 C.ar    1  UNL1        0.1214
      8 N         142.6572  142.8024  163.2474 N.ar    1  UNL1       -0.2055
      9 N         143.4089  143.4489  162.1218 N.ar    1  UNL1       -0.1472
     10 C         141.9760  142.2786  167.1219 C.ar    1  UNL1        0.0576
     11 C         140.7504  142.5366  167.9471 C.ar    1  UNL1        0.1049
     12 N         140.8636  142.6700  169.4369 N.ar    1  UNL1       -0.2124
     13 C         142.2027  142.5454  170.1014 C.ar    1  UNL1        0.2137
     14 N         142.3160  142.6788  171.5911 N.pl3   1  UNL1       -0.3274
     15 N         143.4283  142.2874  169.2761 N.ar    1  UNL1       -0.2124
     16 C         143.3150  142.1540  167.7863 C.ar    1  UNL1        0.1049
     17 H         141.5115  142.8482  172.1328 H       1  UNL1        0.1452
     18 H         143.1948  142.5971  172.0272 H       1  UNL1        0.1452
     19 N         139.7076  140.1636  162.9527 N.pl3   1  UNL1       -0.2857
     20 C         138.6413  140.7064  162.0481 C.3     1  UNL1        0.1243
     21 C         137.6204  139.7822  161.4534 C.3     1  UNL1        0.1636
     22 O         137.6659  138.3153  161.7633 O.3     1  UNL1       -0.3501
     23 C         138.7322  137.7724  162.6679 C.3     1  UNL1        0.1636
     24 C         139.7531  138.6966  163.2626 C.3     1  UNL1        0.1243
     25 C         143.3113  143.3039  159.4545 C.3     1  UNL1        0.1408
     26 N         140.6506  145.7768  156.7983 N.3     1  UNL1       -0.1565
     27 C         141.7580  144.9609  156.2000 C.3     1  UNL1        0.1128
     28 C         142.6449  144.1365  157.0855 C.3     1  UNL1        0.0918
     29 N         142.4244  144.1282  158.5691 N.3     1  UNL1       -0.2637
     30 C         141.3169  144.9441  159.1674 C.3     1  UNL1        0.0918
     31 C         140.4301  145.7684  158.2819 C.3     1  UNL1        0.1128
     32 C         138.8769  147.4253  155.0274 C.3     1  UNL1        0.1960
     33 S         139.7637  146.6011  155.9129 S.O2    1  UNL1        0.0457
     34 O         139.3014  147.3847  157.1055 O.2     1  UNL1       -0.1572
     35 O         140.2260  145.8175  154.7203 O.2     1  UNL1       -0.1572
@<TRIPOS>BOND
     1    32    33    1
     2    33    34    2
     3    33    35    2
     4    33    26    1
     5    26    27    1
     6    27    28    1
     7    28    29    1
     8    29    25    1
     9    25     1    1
    10     1     2   ar
    11     2     3   ar
    12     3     4   ar
    13     4    19    1
    14    19    20    1
    15    20    21    1
    16    21    22    1
    17    22    23    1
    18    23    24    1
    19     4     5   ar
    20     5     6   ar
    21     6    10    1
    22    10    11   ar
    23    11    12   ar
    24    12    13   ar
    25    13    14    1
    26    13    15   ar
    27    15    16   ar
    28     6     7   ar
    29     7     8   ar
    30     8     9   ar
    31    29    30    1
    32    30    31    1
    33    31    26    1
    34     9     1   ar
    35     8     3   ar
    36    24    19    1
    37    16    10   ar
    38    14    17    1
    39    14    18    1
@<TRIPOS>MOLECULE
*****
 35 39 0 0 0
SMALL
GASTEIGER

@<TRIPOS>ATOM
      1 C         141.3329  139.0259  161.2126 C.ar    1  UNL1        0.1769
      2 N         140.7832  140.3846  161.5313 N.ar    1  UNL1       -0.2061
      3 C         140.9455  140.6164  163.0044 C.ar    1  UNL1        0.1970
      4 C         140.5855  141.7772  163.8834 C.ar    1  UNL1        0.1680
      5 N         140.8754  141.7225  165.3542 N.ar    1  UNL1       -0.2259
      6 C         141.5253  140.5070  165.9458 C.ar    1  UNL1        0.1050
      7 C         141.8853  139.3462  165.0667 C.ar    1  UNL1        0.1214
      8 N         141.5955  139.4008  163.5960 N.ar    1  UNL1       -0.2055
      9 N         141.8349  138.4178  162.4886 N.ar    1  UNL1       -0.1472
     10 C         141.8152  140.4523  167.4165 C.ar    1  UNL1        0.0576
     11 C         142.6921  139.3677  167.9682 C.ar    1  UNL1        0.1049
     12 N         142.9820  139.3130  169.4390 N.ar    1  UNL1       -0.2124
     13 C         142.3949  140.3429  170.3579 C.ar    1  UNL1        0.2137
     14 N         142.6847  140.2883  171.8286 N.pl3   1  UNL1       -0.3274
     15 N         141.5179  141.4276  169.8062 N.ar    1  UNL1       -0.2124
     16 C         141.2280  141.4822  168.3354 C.ar    1  UNL1        0.1049
     17 H         143.2603  139.5764  172.1908 H       1  UNL1        0.1452
     18 H         142.2994  140.9643  172.4318 H       1  UNL1        0.1452
     19 N         139.9355  142.9928  163.2918 N.pl3   1  UNL1       -0.2857
     20 C         140.7604  143.9907  162.5343 C.3     1  UNL1        0.1243
     21 C         140.1103  145.2063  161.9428 C.3     1  UNL1        0.1636
     22 O         138.6355  145.4239  162.1087 O.3     1  UNL1       -0.3501
     23 C         137.8107  144.4260  162.8662 C.3     1  UNL1        0.1636
     24 C         138.4607  143.2104  163.4577 C.3     1  UNL1        0.1243
     25 C         141.3734  138.3872  159.8559 C.3     1  UNL1        0.1408
     26 N         144.2455  139.9023  156.7405 N.3     1  UNL1       -0.1565
     27 C         143.2922  138.7936  156.4058 C.3     1  UNL1        0.1128
     28 C         142.3348  138.2886  157.4443 C.3     1  UNL1        0.0918
     29 N         142.3308  138.8923  158.8175 N.3     1  UNL1       -0.2637
     30 C         143.2841  140.0010  159.1522 C.3     1  UNL1        0.0918
     31 C         144.2414  140.5060  158.1137 C.3     1  UNL1        0.1128
     32 C         146.1602  140.9126  154.6637 C.3     1  UNL1        0.1960
     33 S         145.2029  140.4074  155.7021 S.O2    1  UNL1        0.0457
     34 O         145.8055  139.0382  155.5918 O.2     1  UNL1       -0.1572
     35 O         144.6002  141.7766  155.8124 O.2     1  UNL1       -0.1572
@<TRIPOS>BOND
     1    32    33    1
     2    33    34    2
     3    33    35    2
     4    33    26    1
     5    26    27    1
     6    27    28    1
     7    28    29    1
     8    29    25    1
     9    25     1    1
    10     1     2   ar
    11     2     3   ar
    12     3     4   ar
    13     4    19    1
    14    19    20    1
    15    20    21    1
    16    21    22    1
    17    22    23    1
    18    23    24    1
    19     4     5   ar
    20     5     6   ar
    21     6    10    1
    22    10    11   ar
    23    11    12   ar
    24    12    13   ar
    25    13    14    1
    26    13    15   ar
    27    15    16   ar
    28     6     7   ar
    29     7     8   ar
    30     8     9   ar
    31    29    30    1
    32    30    31    1
    33    31    26    1
    34     9     1   ar
    35     8     3   ar
    36    24    19    1
    37    16    10   ar
    38    14    17    1
    39    14    18    1
@<TRIPOS>MOLECULE
*****
 35 39 0 0 0
SMALL
GASTEIGER

@<TRIPOS>ATOM
      1 C         140.4941  144.4977  162.3408 C.ar    1  UNL1        0.1769
      2 N         140.1906  143.0407  162.1530 N.ar    1  UNL1       -0.2061
      3 C         140.6070  142.3163  163.3986 C.ar    1  UNL1        0.1970
      4 C         140.5480  140.8680  163.7846 C.ar    1  UNL1        0.1680
      5 N         141.0499  140.4289  165.1283 N.ar    1  UNL1       -0.2259
      6 C         141.6106  141.4380  166.0859 C.ar    1  UNL1        0.1050
      7 C         141.6697  142.8863  165.6999 C.ar    1  UNL1        0.1214
      8 N         141.1679  143.3254  164.3563 N.ar    1  UNL1       -0.2055
      9 N         141.0980  144.6736  163.7025 N.ar    1  UNL1       -0.1472
     10 C         142.1125  140.9989  167.4296 C.ar    1  UNL1        0.0576
     11 C         142.2429  141.9948  168.5436 C.ar    1  UNL1        0.1049
     12 N         142.7447  141.5557  169.8873 N.ar    1  UNL1       -0.2124
     13 C         143.1161  140.1206  170.1168 C.ar    1  UNL1        0.2137
     14 N         143.6180  139.6815  171.4604 N.pl3   1  UNL1       -0.3274
     15 N         142.9857  139.1247  169.0027 N.ar    1  UNL1       -0.2124
     16 C         142.4839  139.5639  167.6591 C.ar    1  UNL1        0.1049
     17 H         143.7035  140.3351  172.1916 H       1  UNL1        0.1452
     18 H         143.8617  138.7396  171.6111 H       1  UNL1        0.1452
     19 N         139.9872  139.8588  162.8270 N.pl3   1  UNL1       -0.2857
     20 C         140.7811  139.4447  161.6236 C.3     1  UNL1        0.1243
     21 C         140.2202  138.4354  160.6661 C.3     1  UNL1        0.1636
     22 O         138.8655  137.8404  160.9119 O.3     1  UNL1       -0.3501
     23 C         138.0715  138.2545  162.1153 C.3     1  UNL1        0.1636
     24 C         138.6324  139.2637  163.0728 C.3     1  UNL1        0.1243
     25 C         140.2384  145.5874  161.3422 C.3     1  UNL1        0.1408
     26 N         141.6516  145.1242  157.0950 N.3     1  UNL1       -0.1565
     27 C         140.4753  146.0028  157.4024 C.3     1  UNL1        0.1128
     28 C         140.0043  146.1571  158.8182 C.3     1  UNL1        0.0918
     29 N         140.7095  145.4330  159.9265 N.3     1  UNL1       -0.2637
     30 C         141.8858  144.5544  159.6190 C.3     1  UNL1        0.0918
     31 C         142.3568  144.4001  158.2033 C.3     1  UNL1        0.1128
     32 C         142.5937  144.8155  154.2636 C.3     1  UNL1        0.1960
     33 S         142.1227  144.9698  155.6793 S.O2    1  UNL1        0.0457
     34 O         142.9729  143.8040  156.0894 O.2     1  UNL1       -0.1572
     35 O         141.2725  146.1356  155.2693 O.2     1  UNL1       -0.1572
@<TRIPOS>BOND
     1    32    33    1
     2    33    34    2
     3    33    35    2
     4    33    26    1
     5    26    27    1
     6    27    28    1
     7    28    29    1
     8    29    25    1
     9    25     1    1
    10     1     2   ar
    11     2     3   ar
    12     3     4   ar
    13     4    19    1
    14    19    20    1
    15    20    21    1
    16    21    22    1
    17    22    23    1
    18    23    24    1
    19     4     5   ar
    20     5     6   ar
    21     6    10    1
    22    10    11   ar
    23    11    12   ar
    24    12    13   ar
    25    13    14    1
    26    13    15   ar
    27    15    16   ar
    28     6     7   ar
    29     7     8   ar
    30     8     9   ar
    31    29    30    1
    32    30    31    1
    33    31    26    1
    34     9     1   ar
    35     8     3   ar
    36    24    19    1
    37    16    10   ar
    38    14    17    1
    39    14    18    1
@<TRIPOS>MOLECULE
*****
 35 39 0 0 0
SMALL
GASTEIGER

@<TRIPOS>ATOM
      1 C         142.6513  138.6174  161.2303 C.ar    1  UNL1        0.1769
      2 N         142.1535  140.0254  161.3701 N.ar    1  UNL1       -0.2061
      3 C         141.7824  140.2454  162.8067 C.ar    1  UNL1        0.1970
      4 C         141.2347  141.4397  163.5303 C.ar    1  UNL1        0.1680
      5 N         140.9556  141.3619  165.0021 N.ar    1  UNL1       -0.2259
      6 C         141.2241  140.0899  165.7502 C.ar    1  UNL1        0.1050
      7 C         141.7718  138.8956  165.0266 C.ar    1  UNL1        0.1214
      8 N         142.0510  138.9733  163.5549 N.ar    1  UNL1       -0.2055
      9 N         142.5880  137.9671  162.5806 N.ar    1  UNL1       -0.1472
     10 C         140.9450  140.0121  167.2220 C.ar    1  UNL1        0.0576
     11 C         139.5302  140.0371  167.7194 C.ar    1  UNL1        0.1049
     12 N         139.2510  139.9593  169.1912 N.ar    1  UNL1       -0.2124
     13 C         140.3868  139.8564  170.1655 C.ar    1  UNL1        0.2137
     14 N         140.1078  139.7786  171.6372 N.pl3   1  UNL1       -0.3274
     15 N         141.8017  139.8314  169.6680 N.ar    1  UNL1       -0.2124
     16 C         142.0808  139.9092  168.1963 C.ar    1  UNL1        0.1049
     17 H         139.1791  139.7950  171.9637 H       1  UNL1        0.1452
     18 H         140.8532  139.7111  172.2767 H       1  UNL1        0.1452
     19 N         140.9661  142.7118  162.7822 N.pl3   1  UNL1       -0.2857
     20 C         139.5717  143.2600  162.7113 C.3     1  UNL1        0.1243
     21 C         139.3032  144.5322  161.9632 C.3     1  UNL1        0.1636
     22 O         140.4291  145.2560  161.2861 O.3     1  UNL1       -0.3501
     23 C         141.8235  144.7078  161.3570 C.3     1  UNL1        0.1636
     24 C         142.0920  143.4357  162.1051 C.3     1  UNL1        0.1243
     25 C         143.1287  137.9727  159.9629 C.3     1  UNL1        0.1408
     26 N         140.3292  137.5386  156.4665 N.3     1  UNL1       -0.1565
     27 C         139.8838  138.2709  157.6975 C.3     1  UNL1        0.1128
     28 C         140.8171  138.4156  158.8630 C.3     1  UNL1        0.0918
     29 N         142.1956  137.8280  158.7974 N.3     1  UNL1       -0.2637
     30 C         142.6410  137.0957  157.5663 C.3     1  UNL1        0.0918
     31 C         141.7078  136.9510  156.4010 C.3     1  UNL1        0.1128
     32 C         138.4629  137.2492  154.1357 C.3     1  UNL1        0.1960
     33 S         139.3961  137.3939  155.3011 S.O2    1  UNL1        0.0457
     34 O         140.3033  136.3598  154.7031 O.2     1  UNL1       -0.1572
     35 O         138.4889  138.4280  155.8990 O.2     1  UNL1       -0.1572
@<TRIPOS>BOND
     1    32    33    1
     2    33    34    2
     3    33    35    2
     4    33    26    1
     5    26    27    1
     6    27    28    1
     7    28    29    1
     8    29    25    1
     9    25     1    1
    10     1     2   ar
    11     2     3   ar
    12     3     4   ar
    13     4    19    1
    14    19    20    1
    15    20    21    1
    16    21    22    1
    17    22    23    1
    18    23    24    1
    19     4     5   ar
    20     5     6   ar
    21     6    10    1
    22    10    11   ar
    23    11    12   ar
    24    12    13   ar
    25    13    14    1
    26    13    15   ar
    27    15    16   ar
    28     6     7   ar
    29     7     8   ar
    30     8     9   ar
    31    29    30    1
    32    30    31    1
    33    31    26    1
    34     9     1   ar
    35     8     3   ar
    36    24    19    1
    37    16    10   ar
    38    14    17    1
    39    14    18    1
@<TRIPOS>MOLECULE
*****
 35 39 0 0 0
SMALL
GASTEIGER

@<TRIPOS>ATOM
      1 C         139.2917  139.6854  163.1788 C.ar    1  UNL1        0.1769
      2 N         140.2848  140.8004  163.0361 N.ar    1  UNL1       -0.2061
      3 C         140.0210  141.4920  161.7314 C.ar    1  UNL1        0.1970
      4 C         140.6842  142.6590  161.0620 C.ar    1  UNL1        0.1680
      5 N         140.1911  143.1384  159.7288 N.ar    1  UNL1       -0.2259
      6 C         139.0350  142.4508  159.0653 C.ar    1  UNL1        0.1050
      7 C         138.3717  141.2838  159.7347 C.ar    1  UNL1        0.1214
      8 N         138.8647  140.8044  161.0678 N.ar    1  UNL1       -0.2055
      9 N         138.4140  139.6878  161.9624 N.ar    1  UNL1       -0.1472
     10 C         138.5419  142.9302  157.7321 C.ar    1  UNL1        0.0576
     11 C         139.2464  144.0540  157.0318 C.ar    1  UNL1        0.1049
     12 N         138.7533  144.5334  155.6987 N.ar    1  UNL1       -0.2124
     13 C         137.5557  143.8888  155.0660 C.ar    1  UNL1        0.2137
     14 N         137.0626  144.3681  153.7329 N.pl3   1  UNL1       -0.3274
     15 N         136.8512  142.7649  155.7664 N.ar    1  UNL1       -0.2124
     16 C         137.3443  142.2856  157.0995 C.ar    1  UNL1        0.1049
     17 H         137.5250  145.1057  153.2732 H       1  UNL1        0.1452
     18 H         136.2765  143.9451  153.3177 H       1  UNL1        0.1452
     19 N         141.8404  143.3467  161.7255 N.pl3   1  UNL1       -0.2857
     20 C         141.5930  144.4730  162.6848 C.3     1  UNL1        0.1243
     21 C         142.7493  145.1606  163.3482 C.3     1  UNL1        0.1636
     22 O         144.1529  144.7219  163.0525 O.3     1  UNL1       -0.3501
     23 C         144.4003  143.5955  162.0933 C.3     1  UNL1        0.1636
     24 C         143.2440  142.9079  161.4298 C.3     1  UNL1        0.1243
     25 C         139.1934  138.7348  164.3350 C.3     1  UNL1        0.1408
     26 N         140.8732  139.8900  168.3467 N.3     1  UNL1       -0.1565
     27 C         139.3891  139.8814  168.1294 C.3     1  UNL1        0.1128
     28 C         138.8292  139.4964  166.7921 C.3     1  UNL1        0.0918
     29 N         139.7534  139.1199  165.6722 N.3     1  UNL1       -0.2637
     30 C         141.2375  139.1285  165.8896 C.3     1  UNL1        0.0918
     31 C         141.7974  139.5135  167.2268 C.3     1  UNL1        0.1128
     32 C         141.9932  140.6602  171.0211 C.3     1  UNL1        0.1960
     33 S         141.4332  140.2751  169.6839 S.O2    1  UNL1        0.0457
     34 O         140.3399  139.5051  170.3635 O.2     1  UNL1       -0.1572
     35 O         142.5265  141.0451  169.0044 O.2     1  UNL1       -0.1572
@<TRIPOS>BOND
     1    32    33    1
     2    33    34    2
     3    33    35    2
     4    33    26    1
     5    26    27    1
     6    27    28    1
     7    28    29    1
     8    29    25    1
     9    25     1    1
    10     1     2   ar
    11     2     3   ar
    12     3     4   ar
    13     4    19    1
    14    19    20    1
    15    20    21    1
    16    21    22    1
    17    22    23    1
    18    23    24    1
    19     4     5   ar
    20     5     6   ar
    21     6    10    1
    22    10    11   ar
    23    11    12   ar
    24    12    13   ar
    25    13    14    1
    26    13    15   ar
    27    15    16   ar
    28     6     7   ar
    29     7     8   ar
    30     8     9   ar
    31    29    30    1
    32    30    31    1
    33    31    26    1
    34     9     1   ar
    35     8     3   ar
    36    24    19    1
    37    16    10   ar
    38    14    17    1
    39    14    18    1
@<TRIPOS>MOLECULE
*****
 35 39 0 0 0
SMALL
GASTEIGER

@<TRIPOS>ATOM
      1 C         142.1138  139.9483  159.9091 C.ar    1  UNL1        0.1769
      2 N         141.3962  141.1338  160.4833 N.ar    1  UNL1       -0.2061
      3 C         141.4638  141.0370  161.9786 C.ar    1  UNL1        0.1970
      4 C         140.9320  141.9219  163.0667 C.ar    1  UNL1        0.1680
      5 N         141.1596  141.5615  164.5049 N.ar    1  UNL1       -0.2259
      6 C         141.9188  140.3162  164.8549 C.ar    1  UNL1        0.1050
      7 C         142.4506  139.4312  163.7668 C.ar    1  UNL1        0.1214
      8 N         142.2231  139.7916  162.3286 N.ar    1  UNL1       -0.2055
      9 N         142.6248  139.1188  161.0496 N.ar    1  UNL1       -0.1472
     10 C         142.1464  139.9557  166.2931 C.ar    1  UNL1        0.0576
     11 C         141.3931  140.6723  167.3742 C.ar    1  UNL1        0.1049
     12 N         141.6206  140.3119  168.8124 N.ar    1  UNL1       -0.2124
     13 C         142.6016  139.2347  169.1694 C.ar    1  UNL1        0.2137
     14 N         142.8292  138.8742  170.6075 N.pl3   1  UNL1       -0.3274
     15 N         143.3549  138.5180  168.0882 N.ar    1  UNL1       -0.2124
     16 C         143.1273  138.8785  166.6501 C.ar    1  UNL1        0.1049
     17 H         142.3347  139.3445  171.3171 H       1  UNL1        0.1452
     18 H         143.4730  138.1672  170.8418 H       1  UNL1        0.1452
     19 N         140.1727  143.1674  162.7167 N.pl3   1  UNL1       -0.2857
     20 C         138.7216  143.2873  163.0773 C.3     1  UNL1        0.1243
     21 C         137.9624  144.5327  162.7273 C.3     1  UNL1        0.1636
     22 O         138.6542  145.6581  162.0168 O.3     1  UNL1       -0.3501
     23 C         140.1052  145.5382  161.6563 C.3     1  UNL1        0.1636
     24 C         140.8645  144.2928  162.0063 C.3     1  UNL1        0.1243
     25 C         142.2894  139.6455  158.4506 C.3     1  UNL1        0.1408
     26 N         145.8020  141.3424  156.2072 N.3     1  UNL1       -0.1565
     27 C         145.1390  140.0867  155.7237 C.3     1  UNL1        0.1128
     28 C         143.9681  139.5211  156.4716 C.3     1  UNL1        0.0918
     29 N         143.4603  140.2111  157.7028 N.3     1  UNL1       -0.2637
     30 C         144.1234  141.4668  158.1863 C.3     1  UNL1        0.0918
     31 C         145.2942  142.0324  157.4385 C.3     1  UNL1        0.1128
     32 C         148.1437  142.4737  154.7117 C.3     1  UNL1        0.1960
     33 S         146.9729  141.9080  155.4595 S.O2    1  UNL1        0.0457
     34 O         147.5970  142.3306  156.7564 O.2     1  UNL1       -0.1572
     35 O         146.3488  141.4855  154.1626 O.2     1  UNL1       -0.1572
@<TRIPOS>BOND
     1    32    33    1
     2    33    34    2
     3    33    35    2
     4    33    26    1
     5    26    27    1
     6    27    28    1
     7    28    29    1
     8    29    25    1
     9    25     1    1
    10     1     2   ar
    11     2     3   ar
    12     3     4   ar
    13     4    19    1
    14    19    20    1
    15    20    21    1
    16    21    22    1
    17    22    23    1
    18    23    24    1
    19     4     5   ar
    20     5     6   ar
    21     6    10    1
    22    10    11   ar
    23    11    12   ar
    24    12    13   ar
    25    13    14    1
    26    13    15   ar
    27    15    16   ar
    28     6     7   ar
    29     7     8   ar
    30     8     9   ar
    31    29    30    1
    32    30    31    1
    33    31    26    1
    34     9     1   ar
    35     8     3   ar
    36    24    19    1
    37    16    10   ar
    38    14    17    1
    39    14    18    1
@<TRIPOS>MOLECULE
*****
 35 39 0 0 0
SMALL
GASTEIGER

@<TRIPOS>ATOM
      1 C         138.9796  138.5346  161.8758 C.ar    1  UNL1        0.1769
      2 N         139.6602  138.0536  160.6287 N.ar    1  UNL1       -0.2061
      3 C         139.5027  139.1116  159.5772 C.ar    1  UNL1        0.1970
      4 C         139.9671  139.1882  158.1530 C.ar    1  UNL1        0.1680
      5 N         139.6536  140.3999  157.3260 N.ar    1  UNL1       -0.2259
      6 C         138.8757  141.5347  157.9233 C.ar    1  UNL1        0.1050
      7 C         138.4112  141.4581  159.3475 C.ar    1  UNL1        0.1214
      8 N         138.7247  140.2466  160.1745 N.ar    1  UNL1       -0.2055
      9 N         138.4014  139.8900  161.5951 N.ar    1  UNL1       -0.1472
     10 C         138.5621  142.7464  157.0963 C.ar    1  UNL1        0.0576
     11 C         137.2578  142.8356  156.3612 C.ar    1  UNL1        0.1049
     12 N         136.9442  144.0472  155.5342 N.ar    1  UNL1       -0.2124
     13 C         137.9352  145.1695  155.4426 C.ar    1  UNL1        0.2137
     14 N         137.6217  146.3811  154.6157 N.pl3   1  UNL1       -0.3274
     15 N         139.2396  145.0803  156.1778 N.ar    1  UNL1       -0.2124
     16 C         139.5531  143.8687  157.0047 C.ar    1  UNL1        0.1049
     17 H         136.7656  146.4397  154.1331 H       1  UNL1        0.1452
     18 H         138.2721  147.1178  154.5555 H       1  UNL1        0.1452
     19 N         140.7451  138.0533  157.5556 N.pl3   1  UNL1       -0.2857
     20 C         140.1566  137.2485  156.4350 C.3     1  UNL1        0.1243
     21 C         140.9347  136.1136  155.8377 C.3     1  UNL1        0.1636
     22 O         142.3011  135.7836  156.3611 O.3     1  UNL1       -0.3501
     23 C         142.8896  136.5885  157.4818 C.3     1  UNL1        0.1636
     24 C         142.1115  137.7233  158.0790 C.3     1  UNL1        0.1243
     25 C         138.8924  137.7909  163.1756 C.3     1  UNL1        0.1408
     26 N         139.7941  139.9068  167.0434 N.3     1  UNL1       -0.1565
     27 C         140.7645  139.9842  165.9023 C.3     1  UNL1        0.1128
     28 C         140.4639  139.2789  164.6130 C.3     1  UNL1        0.0918
     29 N         139.1929  138.4962  164.4649 N.3     1  UNL1       -0.2637
     30 C         138.2225  138.4188  165.6061 C.3     1  UNL1        0.0918
     31 C         138.5231  139.1241  166.8953 C.3     1  UNL1        0.1128
     32 C         140.3950  141.3173  169.6220 C.3     1  UNL1        0.1960
     33 S         140.0946  140.6121  168.3327 S.O2    1  UNL1        0.0457
     34 O         141.1108  141.4630  167.6304 O.2     1  UNL1       -0.1572
     35 O         139.0783  139.7612  169.0350 O.2     1  UNL1       -0.1572
@<TRIPOS>BOND
     1    32    33    1
     2    33    34    2
     3    33    35    2
     4    33    26    1
     5    26    27    1
     6    27    28    1
     7    28    29    1
     8    29    25    1
     9    25     1    1
    10     1     2   ar
    11     2     3   ar
    12     3     4   ar
    13     4    19    1
    14    19    20    1
    15    20    21    1
    16    21    22    1
    17    22    23    1
    18    23    24    1
    19     4     5   ar
    20     5     6   ar
    21     6    10    1
    22    10    11   ar
    23    11    12   ar
    24    12    13   ar
    25    13    14    1
    26    13    15   ar
    27    15    16   ar
    28     6     7   ar
    29     7     8   ar
    30     8     9   ar
    31    29    30    1
    32    30    31    1
    33    31    26    1
    34     9     1   ar
    35     8     3   ar
    36    24    19    1
    37    16    10   ar
    38    14    17    1
    39    14    18    1
