@<TRIPOS>MOLECULE
*****
 31 33 0 0 0
SMALL
GASTEIGER

@<TRIPOS>ATOM
      1 C         141.8755  140.9012  167.2146 C.ar    1  UNL1        0.1409
      2 N         140.6958  140.3895  166.4423 N.ar    1  UNL1       -0.1986
      3 C         139.5064  139.8356  167.1694 C.ar    1  UNL1        0.2181
      4 N         139.4968  139.7934  168.6687 N.ar    1  UNL1       -0.2120
      5 C         140.6766  140.3050  169.4410 C.ar    1  UNL1        0.1091
      6 C         141.8659  140.8589  168.7140 C.ar    1  UNL1        0.1040
      7 C         143.0456  141.3705  169.4863 C.2     1  UNL1        0.2470
      8 N         143.6181  140.5559  170.6082 N.am    1  UNL1       -0.3252
      9 O         143.6530  142.6968  169.1366 O.2     1  UNL1       -0.2702
     10 H         143.2195  139.6855  170.8377 H       1  UNL1        0.1453
     11 H         144.3924  140.8917  171.1151 H       1  UNL1        0.1453
     12 N         143.0649  141.4550  166.4875 N.pl3   1  UNL1       -0.2977
     13 H         143.9468  141.0298  166.5907 H       1  UNL1        0.1536
     14 C         140.0206  144.7714  163.8925 C.3     1  UNL1        0.0311
     15 C         141.3884  144.3150  164.3058 C.ar    1  UNL1       -0.0206
     16 C         142.6019  145.0605  163.8350 C.ar    1  UNL1       -0.0042
     17 C         143.9697  144.6042  164.2483 C.ar    1  UNL1        0.0009
     18 C         144.1240  143.4024  165.1325 C.ar    1  UNL1        0.0146
     19 C         142.9106  142.6569  165.6033 C.ar    1  UNL1        0.0491
     20 C         141.5427  143.1132  165.1900 C.ar    1  UNL1        0.0104
     21 N         138.3267  139.3240  166.3971 N.pl3   1  UNL1       -0.3031
     22 H         137.4842  139.1192  166.8636 H       1  UNL1        0.1496
     23 C         138.4305  139.1245  164.9140 C.3     1  UNL1        0.0908
     24 C         138.9431  137.8257  164.3660 C.3     1  UNL1        0.0531
     25 C         139.0469  137.6262  162.8829 C.3     1  UNL1        0.1440
     26 O         138.6381  138.7256  161.9479 O.3     1  UNL1       -0.3522
     27 C         138.1254  140.0244  162.4959 C.3     1  UNL1        0.1592
     28 C         138.0216  140.2239  163.9790 C.3     1  UNL1        0.0990
     29 N         137.5089  141.5227  164.5270 N.3     1  UNL1       -0.3189
     30 H         137.5057  141.4840  165.5463 H       1  UNL1        0.1189
     31 H         136.5597  141.6830  164.1898 H       1  UNL1        0.1189
@<TRIPOS>BOND
     1    14    15    1
     2    15    16   ar
     3    16    17   ar
     4    17    18   ar
     5    18    19   ar
     6    19    12    1
     7    12     1    1
     8     1     2   ar
     9     2     3   ar
    10     3    21    1
    11    23    21    1
    12    23    24    1
    13    24    25    1
    14    25    26    1
    15    26    27    1
    16    27    28    1
    17    28    29    1
    18     3     4   ar
    19     4     5   ar
    20     5     6   ar
    21     6     7    1
    22     7     8   am
    23     7     9    2
    24    19    20   ar
    25    20    15   ar
    26     6     1   ar
    27    28    23    1
    28    12    13    1
    29    21    22    1
    30    29    30    1
    31    29    31    1
    32     8    10    1
    33     8    11    1
@<TRIPOS>MOLECULE
*****
 31 33 0 0 0
SMALL
GASTEIGER

@<TRIPOS>ATOM
      1 C         141.3873  140.7614  166.8600 C.ar    1  UNL1        0.1409
      2 N         142.3500  141.5694  166.0412 N.ar    1  UNL1       -0.1986
      3 C         143.3784  142.4246  166.7202 C.ar    1  UNL1        0.2181
      4 N         143.4442  142.4717  168.2180 N.ar    1  UNL1       -0.2120
      5 C         142.4816  141.6638  169.0369 C.ar    1  UNL1        0.1091
      6 C         141.4531  140.8086  168.3579 C.ar    1  UNL1        0.1040
      7 C         140.4905  140.0007  169.1768 C.2     1  UNL1        0.2470
      8 N         140.9289  139.4115  170.4846 N.am    1  UNL1       -0.3252
      9 O         139.0894  139.7819  168.6876 O.2     1  UNL1       -0.2702
     10 H         141.8484  139.5551  170.8057 H       1  UNL1        0.1453
     11 H         140.2970  138.8812  171.0221 H       1  UNL1        0.1453
     12 N         140.3589  139.9063  166.1811 N.pl3   1  UNL1       -0.2977
     13 H         140.3237  138.9396  166.3644 H       1  UNL1        0.1536
     14 C         137.7050  144.0477  164.5061 C.3     1  UNL1        0.0311
     15 C         138.0571  142.5946  164.3854 C.ar    1  UNL1       -0.0206
     16 C         137.4344  141.7592  163.3064 C.ar    1  UNL1       -0.0042
     17 C         137.7865  140.3061  163.1856 C.ar    1  UNL1        0.0009
     18 C         138.7613  139.6885  164.1438 C.ar    1  UNL1        0.0146
     19 C         139.3840  140.5239  165.2228 C.ar    1  UNL1        0.0491
     20 C         139.0319  141.9770  165.3436 C.ar    1  UNL1        0.0104
     21 N         144.3411  143.2325  165.9014 N.pl3   1  UNL1       -0.3031
     22 H         145.1504  143.6058  166.3195 H       1  UNL1        0.1496
     23 C         144.0706  143.4717  164.4454 C.3     1  UNL1        0.0908
     24 C         143.0057  144.4430  164.0302 C.3     1  UNL1        0.0531
     25 C         142.7351  144.6822  162.5742 C.3     1  UNL1        0.1440
     26 O         143.5295  143.9500  161.5336 O.3     1  UNL1       -0.3522
     27 C         144.5945  142.9786  161.9490 C.3     1  UNL1        0.1592
     28 C         144.8650  142.7395  163.4049 C.3     1  UNL1        0.0990
     29 N         145.9299  141.7681  163.8202 N.3     1  UNL1       -0.3189
     30 H         145.9773  141.7305  164.8384 H       1  UNL1        0.1189
     31 H         146.8302  142.0714  163.4489 H       1  UNL1        0.1189
@<TRIPOS>BOND
     1    14    15    1
     2    15    16   ar
     3    16    17   ar
     4    17    18   ar
     5    18    19   ar
     6    19    12    1
     7    12     1    1
     8     1     2   ar
     9     2     3   ar
    10     3    21    1
    11    23    21    1
    12    23    24    1
    13    24    25    1
    14    25    26    1
    15    26    27    1
    16    27    28    1
    17    28    29    1
    18     3     4   ar
    19     4     5   ar
    20     5     6   ar
    21     6     7    1
    22     7     8   am
    23     7     9    2
    24    19    20   ar
    25    20    15   ar
    26     6     1   ar
    27    28    23    1
    28    12    13    1
    29    21    22    1
    30    29    30    1
    31    29    31    1
    32     8    10    1
    33     8    11    1
@<TRIPOS>MOLECULE
*****
 31 33 0 0 0
SMALL
GASTEIGER

@<TRIPOS>ATOM
      1 C         141.8715  140.5132  166.7118 C.ar    1  UNL1        0.1409
      2 N         142.7361  141.3340  165.8013 N.ar    1  UNL1       -0.1986
      3 C         143.6078  142.4152  166.3682 C.ar    1  UNL1        0.2181
      4 N         143.6148  142.6756  167.8454 N.ar    1  UNL1       -0.2120
      5 C         142.7503  141.8549  168.7558 C.ar    1  UNL1        0.1091
      6 C         141.8786  140.7737  168.1890 C.ar    1  UNL1        0.1040
      7 C         141.0140  139.9529  169.0994 C.2     1  UNL1        0.2470
      8 N         141.6016  139.3283  170.3301 N.am    1  UNL1       -0.3252
      9 O         139.5618  139.7568  168.7791 O.2     1  UNL1       -0.2702
     10 H         142.5548  139.4571  170.5403 H       1  UNL1        0.1453
     11 H         141.0342  138.7896  170.9276 H       1  UNL1        0.1453
     12 N         140.9999  139.4320  166.1450 N.pl3   1  UNL1       -0.2977
     13 H         141.1483  138.4938  166.4038 H       1  UNL1        0.1536
     14 C         138.1274  138.2582  161.9772 C.3     1  UNL1        0.0311
     15 C         138.4659  139.1934  163.1000 C.ar    1  UNL1       -0.0206
     16 C         137.7066  140.4768  163.2619 C.ar    1  UNL1       -0.0042
     17 C         138.0451  141.4120  164.3847 C.ar    1  UNL1        0.0009
     18 C         139.1428  141.0638  165.3458 C.ar    1  UNL1        0.0146
     19 C         139.9021  139.7803  165.1839 C.ar    1  UNL1        0.0491
     20 C         139.5636  138.8451  164.0611 C.ar    1  UNL1        0.0104
     21 N         144.4724  143.2359  165.4578 N.pl3   1  UNL1       -0.3031
     22 H         145.2967  143.6495  165.8024 H       1  UNL1        0.1496
     23 C         144.0810  143.4266  164.0223 C.3     1  UNL1        0.0908
     24 C         142.8978  144.2804  163.6746 C.3     1  UNL1        0.0531
     25 C         142.5064  144.4710  162.2391 C.3     1  UNL1        0.1440
     26 O         143.2983  143.8079  161.1514 O.3     1  UNL1       -0.3522
     27 C         144.4817  142.9542  161.4992 C.3     1  UNL1        0.1592
     28 C         144.8730  142.7635  162.9346 C.3     1  UNL1        0.0990
     29 N         146.0563  141.9097  163.2824 N.3     1  UNL1       -0.3189
     30 H         146.1762  141.8911  164.2951 H       1  UNL1        0.1189
     31 H         146.8941  142.2966  162.8479 H       1  UNL1        0.1189
@<TRIPOS>BOND
     1    14    15    1
     2    15    16   ar
     3    16    17   ar
     4    17    18   ar
     5    18    19   ar
     6    19    12    1
     7    12     1    1
     8     1     2   ar
     9     2     3   ar
    10     3    21    1
    11    23    21    1
    12    23    24    1
    13    24    25    1
    14    25    26    1
    15    26    27    1
    16    27    28    1
    17    28    29    1
    18     3     4   ar
    19     4     5   ar
    20     5     6   ar
    21     6     7    1
    22     7     8   am
    23     7     9    2
    24    19    20   ar
    25    20    15   ar
    26     6     1   ar
    27    28    23    1
    28    12    13    1
    29    21    22    1
    30    29    30    1
    31    29    31    1
    32     8    10    1
    33     8    11    1
@<TRIPOS>MOLECULE
*****
 31 33 0 0 0
SMALL
GASTEIGER

@<TRIPOS>ATOM
      1 C         140.2659  139.6992  166.9140 C.ar    1  UNL1        0.1409
      2 N         141.3826  139.2901  165.9998 N.ar    1  UNL1       -0.1986
      3 C         142.7680  139.1052  166.5442 C.ar    1  UNL1        0.2181
      4 N         143.0369  139.3294  168.0027 N.ar    1  UNL1       -0.2120
      5 C         141.9202  139.7384  168.9170 C.ar    1  UNL1        0.1091
      6 C         140.5348  139.9233  168.3727 C.ar    1  UNL1        0.1040
      7 C         139.4182  140.3324  169.2869 C.2     1  UNL1        0.2470
      8 N         139.5670  141.5456  170.1563 N.am    1  UNL1       -0.3252
      9 O         138.1527  139.5282  169.3317 O.2     1  UNL1       -0.2702
     10 H         140.3975  142.0734  170.1269 H       1  UNL1        0.1453
     11 H         138.8341  141.8141  170.7564 H       1  UNL1        0.1453
     12 N         138.8805  139.8841  166.3697 N.pl3   1  UNL1       -0.2977
     13 H         138.1416  139.3260  166.7042 H       1  UNL1        0.1536
     14 C         139.3850  144.7512  164.6215 C.3     1  UNL1        0.0311
     15 C         138.8730  143.3528  164.4416 C.ar    1  UNL1       -0.0206
     16 C         138.1013  142.9896  163.2077 C.ar    1  UNL1       -0.0042
     17 C         137.5893  141.5912  163.0278 C.ar    1  UNL1        0.0009
     18 C         137.8491  140.5560  164.0817 C.ar    1  UNL1        0.0146
     19 C         138.6207  140.9193  165.3156 C.ar    1  UNL1        0.0491
     20 C         139.1327  142.3177  165.4955 C.ar    1  UNL1        0.0104
     21 N         143.8847  138.6961  165.6300 N.pl3   1  UNL1       -0.3031
     22 H         144.4545  137.9276  165.8621 H       1  UNL1        0.1496
     23 C         144.1331  139.4581  164.3619 C.3     1  UNL1        0.0908
     24 C         145.1217  140.5861  164.3462 C.3     1  UNL1        0.0531
     25 C         145.3701  141.3481  163.0782 C.3     1  UNL1        0.1440
     26 O         144.6300  140.9819  161.8260 O.3     1  UNL1       -0.3522
     27 C         143.6414  139.8538  161.8417 C.3     1  UNL1        0.1592
     28 C         143.3930  139.0919  163.1097 C.3     1  UNL1        0.0990
     29 N         142.4044  137.9638  163.1255 N.3     1  UNL1       -0.3189
     30 H         142.3623  137.5617  164.0619 H       1  UNL1        0.1189
     31 H         142.6955  137.2473  162.4605 H       1  UNL1        0.1189
@<TRIPOS>BOND
     1    14    15    1
     2    15    16   ar
     3    16    17   ar
     4    17    18   ar
     5    18    19   ar
     6    19    12    1
     7    12     1    1
     8     1     2   ar
     9     2     3   ar
    10     3    21    1
    11    23    21    1
    12    23    24    1
    13    24    25    1
    14    25    26    1
    15    26    27    1
    16    27    28    1
    17    28    29    1
    18     3     4   ar
    19     4     5   ar
    20     5     6   ar
    21     6     7    1
    22     7     8   am
    23     7     9    2
    24    19    20   ar
    25    20    15   ar
    26     6     1   ar
    27    28    23    1
    28    12    13    1
    29    21    22    1
    30    29    30    1
    31    29    31    1
    32     8    10    1
    33     8    11    1
@<TRIPOS>MOLECULE
*****
 31 33 0 0 0
SMALL
GASTEIGER

@<TRIPOS>ATOM
      1 C         141.1243  139.7717  165.1598 C.ar    1  UNL1        0.1409
      2 N         141.3458  139.9040  166.6374 N.ar    1  UNL1       -0.1986
      3 C         142.5823  139.3314  167.2647 C.ar    1  UNL1        0.2181
      4 N         143.5972  138.6267  166.4143 N.ar    1  UNL1       -0.2120
      5 C         143.3757  138.4944  164.9366 C.ar    1  UNL1        0.1091
      6 C         142.1393  139.0669  164.3094 C.ar    1  UNL1        0.1040
      7 C         141.9178  138.9346  162.8317 C.2     1  UNL1        0.2470
      8 N         141.9532  137.5811  162.1862 N.am    1  UNL1       -0.3252
      9 O         141.6608  140.1560  161.9996 O.2     1  UNL1       -0.2702
     10 H         142.1219  136.7796  162.7324 H       1  UNL1        0.1453
     11 H         141.8079  137.4943  161.2164 H       1  UNL1        0.1453
     12 N         139.8879  140.3442  164.5325 N.pl3   1  UNL1       -0.2977
     13 H         139.2069  139.7446  164.1503 H       1  UNL1        0.1536
     14 C         141.8200  145.1259  163.8981 C.3     1  UNL1        0.0311
     15 C         140.6550  144.2211  164.1703 C.ar    1  UNL1       -0.0206
     16 C         139.2910  144.8024  164.3976 C.ar    1  UNL1       -0.0042
     17 C         138.1260  143.8976  164.6698 C.ar    1  UNL1        0.0009
     18 C         138.3249  142.4116  164.7148 C.ar    1  UNL1        0.0146
     19 C         139.6889  141.8303  164.4875 C.ar    1  UNL1        0.0491
     20 C         140.8539  142.7351  164.2153 C.ar    1  UNL1        0.0104
     21 N         142.8037  139.4637  168.7423 N.pl3   1  UNL1       -0.3031
     22 H         143.2247  138.7291  169.2447 H       1  UNL1        0.1496
     23 C         142.3838  140.7153  169.4546 C.3     1  UNL1        0.0908
     24 C         143.3827  141.8053  169.7076 C.3     1  UNL1        0.0531
     25 C         142.9628  143.0570  170.4198 C.3     1  UNL1        0.1440
     26 O         141.5440  143.2185  170.8790 O.3     1  UNL1       -0.3522
     27 C         140.5451  142.1283  170.6260 C.3     1  UNL1        0.1592
     28 C         140.9650  140.8768  169.9138 C.3     1  UNL1        0.0990
     29 N         139.9661  139.7867  169.6607 N.3     1  UNL1       -0.3189
     30 H         140.4203  139.0166  169.1698 H       1  UNL1        0.1189
     31 H         139.2029  140.1506  169.0902 H       1  UNL1        0.1189
@<TRIPOS>BOND
     1    14    15    1
     2    15    16   ar
     3    16    17   ar
     4    17    18   ar
     5    18    19   ar
     6    19    12    1
     7    12     1    1
     8     1     2   ar
     9     2     3   ar
    10     3    21    1
    11    23    21    1
    12    23    24    1
    13    24    25    1
    14    25    26    1
    15    26    27    1
    16    27    28    1
    17    28    29    1
    18     3     4   ar
    19     4     5   ar
    20     5     6   ar
    21     6     7    1
    22     7     8   am
    23     7     9    2
    24    19    20   ar
    25    20    15   ar
    26     6     1   ar
    27    28    23    1
    28    12    13    1
    29    21    22    1
    30    29    30    1
    31    29    31    1
    32     8    10    1
    33     8    11    1
@<TRIPOS>MOLECULE
*****
 31 33 0 0 0
SMALL
GASTEIGER

@<TRIPOS>ATOM
      1 C         141.8000  141.3373  167.1538 C.ar    1  UNL1        0.1409
      2 N         140.6511  140.9619  166.2654 N.ar    1  UNL1       -0.1986
      3 C         139.5042  140.1683  166.8176 C.ar    1  UNL1        0.2181
      4 N         139.5062  139.7502  168.2581 N.ar    1  UNL1       -0.2120
      5 C         140.6550  140.1256  169.1465 C.ar    1  UNL1        0.1091
      6 C         141.8019  140.9191  168.5944 C.ar    1  UNL1        0.1040
      7 C         142.9507  141.2945  169.4828 C.2     1  UNL1        0.2470
      8 N         143.4318  140.3364  170.5318 N.am    1  UNL1       -0.3252
      9 O         143.6185  142.6281  169.3220 O.2     1  UNL1       -0.2702
     10 H         142.9936  139.4612  170.6373 H       1  UNL1        0.1453
     11 H         144.1859  140.5828  171.1149 H       1  UNL1        0.1453
     12 N         142.9469  142.1308  166.6017 N.pl3   1  UNL1       -0.2977
     13 H         143.2510  142.9443  167.0653 H       1  UNL1        0.1536
     14 C         143.6302  138.5843  162.8660 C.3     1  UNL1        0.0311
     15 C         143.9720  139.9117  163.4752 C.ar    1  UNL1       -0.0206
     16 C         144.9973  140.7932  162.8259 C.ar    1  UNL1       -0.0042
     17 C         145.3392  142.1206  163.4352 C.ar    1  UNL1        0.0009
     18 C         144.6557  142.5665  164.6937 C.ar    1  UNL1        0.0146
     19 C         143.6304  141.6850  165.3430 C.ar    1  UNL1        0.0491
     20 C         143.2886  140.3576  164.7338 C.ar    1  UNL1        0.0104
     21 N         138.3554  139.7929  165.9292 N.pl3   1  UNL1       -0.3031
     22 H         137.4307  139.8870  166.2540 H       1  UNL1        0.1496
     23 C         138.6153  139.2742  164.5459 C.3     1  UNL1        0.0908
     24 C         139.5191  138.0941  164.3450 C.3     1  UNL1        0.0531
     25 C         139.7790  137.5753  162.9617 C.3     1  UNL1        0.1440
     26 O         139.1351  138.2368  161.7794 O.3     1  UNL1       -0.3522
     27 C         138.2313  139.4170  161.9804 C.3     1  UNL1        0.1592
     28 C         137.9714  139.9357  163.3636 C.3     1  UNL1        0.0990
     29 N         137.0676  141.1159  163.5646 N.3     1  UNL1       -0.3189
     30 H         137.0049  141.3305  164.5598 H       1  UNL1        0.1189
     31 H         136.1385  140.8978  163.2046 H       1  UNL1        0.1189
@<TRIPOS>BOND
     1    14    15    1
     2    15    16   ar
     3    16    17   ar
     4    17    18   ar
     5    18    19   ar
     6    19    12    1
     7    12     1    1
     8     1     2   ar
     9     2     3   ar
    10     3    21    1
    11    23    21    1
    12    23    24    1
    13    24    25    1
    14    25    26    1
    15    26    27    1
    16    27    28    1
    17    28    29    1
    18     3     4   ar
    19     4     5   ar
    20     5     6   ar
    21     6     7    1
    22     7     8   am
    23     7     9    2
    24    19    20   ar
    25    20    15   ar
    26     6     1   ar
    27    28    23    1
    28    12    13    1
    29    21    22    1
    30    29    30    1
    31    29    31    1
    32     8    10    1
    33     8    11    1
@<TRIPOS>MOLECULE
*****
 31 33 0 0 0
SMALL
GASTEIGER

@<TRIPOS>ATOM
      1 C         140.5515  139.5320  166.8032 C.ar    1  UNL1        0.1409
      2 N         140.3403  138.7517  165.5397 N.ar    1  UNL1       -0.1986
      3 C         138.9821  138.2044  165.2144 C.ar    1  UNL1        0.2181
      4 N         137.8352  138.4374  166.1526 N.ar    1  UNL1       -0.2120
      5 C         138.0464  139.2177  167.4161 C.ar    1  UNL1        0.1091
      6 C         139.4045  139.7650  167.7414 C.ar    1  UNL1        0.1040
      7 C         139.6158  140.5454  169.0049 C.2     1  UNL1        0.2470
      8 N         139.0825  140.0241  170.3064 N.am    1  UNL1       -0.3252
      9 O         140.3603  141.8470  168.9669 O.2     1  UNL1       -0.2702
     10 H         138.5938  139.1698  170.3313 H       1  UNL1        0.1453
     11 H         139.2211  140.5363  171.1357 H       1  UNL1        0.1453
     12 N         141.9097  140.0794  167.1285 N.pl3   1  UNL1       -0.2977
     13 H         142.1313  140.3276  168.0550 H       1  UNL1        0.1536
     14 C         144.3787  143.1111  163.7062 C.3     1  UNL1        0.0311
     15 C         144.1646  141.7643  164.3310 C.ar    1  UNL1       -0.0206
     16 C         144.9709  140.5867  163.8694 C.ar    1  UNL1       -0.0042
     17 C         144.7567  139.2399  164.4942 C.ar    1  UNL1        0.0009
     18 C         143.7363  139.0708  165.5806 C.ar    1  UNL1        0.0146
     19 C         142.9301  140.2485  166.0421 C.ar    1  UNL1        0.0491
     20 C         143.1442  141.5952  165.4173 C.ar    1  UNL1        0.0104
     21 N         138.7709  137.4240  163.9509 N.pl3   1  UNL1       -0.3031
     22 H         138.4525  136.4934  163.9944 H       1  UNL1        0.1496
     23 C         139.0446  138.0616  162.6210 C.3     1  UNL1        0.0908
     24 C         137.9691  138.8461  161.9297 C.3     1  UNL1        0.0531
     25 C         138.2429  139.4837  160.5998 C.3     1  UNL1        0.1440
     26 O         139.5922  139.3367  159.9612 O.3     1  UNL1       -0.3522
     27 C         140.6678  138.5522  160.6526 C.3     1  UNL1        0.1592
     28 C         140.3939  137.9147  161.9824 C.3     1  UNL1        0.0990
     29 N         141.4695  137.1302  162.6738 N.3     1  UNL1       -0.3189
     30 H         141.1124  136.7708  163.5591 H       1  UNL1        0.1189
     31 H         142.2712  137.7354  162.8510 H       1  UNL1        0.1189
@<TRIPOS>BOND
     1    14    15    1
     2    15    16   ar
     3    16    17   ar
     4    17    18   ar
     5    18    19   ar
     6    19    12    1
     7    12     1    1
     8     1     2   ar
     9     2     3   ar
    10     3    21    1
    11    23    21    1
    12    23    24    1
    13    24    25    1
    14    25    26    1
    15    26    27    1
    16    27    28    1
    17    28    29    1
    18     3     4   ar
    19     4     5   ar
    20     5     6   ar
    21     6     7    1
    22     7     8   am
    23     7     9    2
    24    19    20   ar
    25    20    15   ar
    26     6     1   ar
    27    28    23    1
    28    12    13    1
    29    21    22    1
    30    29    30    1
    31    29    31    1
    32     8    10    1
    33     8    11    1
@<TRIPOS>MOLECULE
*****
 31 33 0 0 0
SMALL
GASTEIGER

@<TRIPOS>ATOM
      1 C         140.0757  140.1877  165.4495 C.ar    1  UNL1        0.1409
      2 N         140.4461  140.4804  166.8733 N.ar    1  UNL1       -0.1986
      3 C         139.6318  139.9046  167.9937 C.ar    1  UNL1        0.2181
      4 N         138.4470  139.0361  167.6904 N.ar    1  UNL1       -0.2120
      5 C         138.0766  138.7434  166.2666 C.ar    1  UNL1        0.1091
      6 C         138.8909  139.3192  165.1462 C.ar    1  UNL1        0.1040
      7 C         138.5204  139.0265  163.7224 C.2     1  UNL1        0.2470
      8 N         138.7038  137.6446  163.1686 N.am    1  UNL1       -0.3252
      9 O         137.9666  140.1157  162.8524 O.2     1  UNL1       -0.2702
     10 H         139.0673  136.9297  163.7396 H       1  UNL1        0.1453
     11 H         138.4607  137.4525  162.2342 H       1  UNL1        0.1453
     12 N         140.8900  140.7635  164.3291 N.pl3   1  UNL1       -0.2977
     13 H         141.3683  140.1655  163.7104 H       1  UNL1        0.1536
     14 C         143.7208  145.0404  163.4960 C.3     1  UNL1        0.0311
     15 C         142.3910  144.3890  163.7348 C.ar    1  UNL1       -0.0206
     16 C         141.1467  145.2244  163.7958 C.ar    1  UNL1       -0.0042
     17 C         139.8168  144.5729  164.0346 C.ar    1  UNL1        0.0009
     18 C         139.7312  143.0860  164.2124 C.ar    1  UNL1        0.0146
     19 C         140.9755  142.2505  164.1514 C.ar    1  UNL1        0.0491
     20 C         142.3054  142.9020  163.9126 C.ar    1  UNL1        0.0104
     21 N         140.0022  140.1973  169.4175 N.pl3   1  UNL1       -0.3031
     22 H         139.7427  139.5719  170.1322 H       1  UNL1        0.1496
     23 C         140.7681  141.4429  169.7523 C.3     1  UNL1        0.0908
     24 C         140.0580  142.7619  169.8297 C.3     1  UNL1        0.0531
     25 C         140.8239  144.0075  170.1645 C.3     1  UNL1        0.1440
     26 O         142.2998  143.9340  170.4219 O.3     1  UNL1       -0.3522
     27 C         143.0099  142.6149  170.3445 C.3     1  UNL1        0.1592
     28 C         142.2440  141.3694  170.0097 C.3     1  UNL1        0.0990
     29 N         142.9540  140.0503  169.9323 N.3     1  UNL1       -0.3189
     30 H         142.2852  139.3175  169.6955 H       1  UNL1        0.1189
     31 H         143.3823  139.8413  170.8341 H       1  UNL1        0.1189
@<TRIPOS>BOND
     1    14    15    1
     2    15    16   ar
     3    16    17   ar
     4    17    18   ar
     5    18    19   ar
     6    19    12    1
     7    12     1    1
     8     1     2   ar
     9     2     3   ar
    10     3    21    1
    11    23    21    1
    12    23    24    1
    13    24    25    1
    14    25    26    1
    15    26    27    1
    16    27    28    1
    17    28    29    1
    18     3     4   ar
    19     4     5   ar
    20     5     6   ar
    21     6     7    1
    22     7     8   am
    23     7     9    2
    24    19    20   ar
    25    20    15   ar
    26     6     1   ar
    27    28    23    1
    28    12    13    1
    29    21    22    1
    30    29    30    1
    31    29    31    1
    32     8    10    1
    33     8    11    1
@<TRIPOS>MOLECULE
*****
 31 33 0 0 0
SMALL
GASTEIGER

@<TRIPOS>ATOM
      1 C         143.5394  141.5010  165.5533 C.ar    1  UNL1        0.1409
      2 N         142.9432  141.0267  166.8454 N.ar    1  UNL1       -0.1986
      3 C         142.9361  139.5634  167.1757 C.ar    1  UNL1        0.2181
      4 N         143.5251  138.5746  166.2138 N.ar    1  UNL1       -0.2120
      5 C         144.1213  139.0489  164.9217 C.ar    1  UNL1        0.1091
      6 C         144.1284  140.5120  164.5914 C.ar    1  UNL1        0.1040
      7 C         144.7246  140.9863  163.2993 C.2     1  UNL1        0.2470
      8 N         144.6318  140.1298  162.0714 N.am    1  UNL1       -0.3252
      9 O         145.4136  142.3173  163.2351 O.2     1  UNL1       -0.2702
     10 H         144.1797  139.2563  162.1136 H       1  UNL1        0.1453
     11 H         145.0231  140.4411  161.2234 H       1  UNL1        0.1453
     12 N         143.5465  142.9641  165.2230 N.pl3   1  UNL1       -0.2977
     13 H         144.3489  143.5054  165.4028 H       1  UNL1        0.1536
     14 C         138.3833  143.2017  164.6890 C.3     1  UNL1        0.0311
     15 C         139.7494  143.7213  164.3517 C.ar    1  UNL1       -0.0206
     16 C         139.9001  144.8792  163.4102 C.ar    1  UNL1       -0.0042
     17 C         141.2662  145.3988  163.0730 C.ar    1  UNL1        0.0009
     18 C         142.4817  144.7604  163.6772 C.ar    1  UNL1        0.0146
     19 C         142.3310  143.6025  164.6187 C.ar    1  UNL1        0.0491
     20 C         140.9649  143.0829  164.9559 C.ar    1  UNL1        0.0104
     21 N         142.3399  139.0891  168.4678 N.pl3   1  UNL1       -0.3031
     22 H         142.4726  138.1580  168.7587 H       1  UNL1        0.1496
     23 C         141.5415  140.0336  169.3168 C.3     1  UNL1        0.0908
     24 C         140.0715  140.2029  169.0711 C.3     1  UNL1        0.0531
     25 C         139.2731  141.1473  169.9201 C.3     1  UNL1        0.1440
     26 O         139.9447  141.9224  171.0146 O.3     1  UNL1       -0.3522
     27 C         141.4148  141.7531  171.2602 C.3     1  UNL1        0.1592
     28 C         142.2131  140.8087  170.4113 C.3     1  UNL1        0.0990
     29 N         143.6832  140.6394  170.6569 N.3     1  UNL1       -0.3189
     30 H         144.0633  139.9645  169.9932 H       1  UNL1        0.1189
     31 H         143.8324  140.3020  171.6079 H       1  UNL1        0.1189
@<TRIPOS>BOND
     1    14    15    1
     2    15    16   ar
     3    16    17   ar
     4    17    18   ar
     5    18    19   ar
     6    19    12    1
     7    12     1    1
     8     1     2   ar
     9     2     3   ar
    10     3    21    1
    11    23    21    1
    12    23    24    1
    13    24    25    1
    14    25    26    1
    15    26    27    1
    16    27    28    1
    17    28    29    1
    18     3     4   ar
    19     4     5   ar
    20     5     6   ar
    21     6     7    1
    22     7     8   am
    23     7     9    2
    24    19    20   ar
    25    20    15   ar
    26     6     1   ar
    27    28    23    1
    28    12    13    1
    29    21    22    1
    30    29    30    1
    31    29    31    1
    32     8    10    1
    33     8    11    1
