@<TRIPOS>MOLECULE
*****
 25 26 0 0 0
SMALL
GASTEIGER

@<TRIPOS>ATOM
      1 N         143.9047  140.3721  161.4119 N.pl3   1  UNL1       -0.2619
      2 H         143.1806  140.9300  161.0462 H       1  UNL1        0.2588
      3 N         145.5917  142.2416  162.0516 N.pl3   1  UNL1       -0.1293
      4 C         144.8871  140.9592  162.3816 C.cat   1  UNL1        0.3840
      5 H         145.4094  142.6980  161.1985 H       1  UNL1        0.3062
      6 N         145.1649  140.2639  163.6814 N.pl3   1  UNL1       -0.2424
      7 H         146.0439  139.8500  163.8402 H       1  UNL1        0.2649
      8 C         144.1033  140.1992  164.7391 C.ar    1  UNL1        0.1168
      9 C         143.6285  138.8692  165.2449 C.ar    1  UNL1        0.0343
     10 C         142.5669  138.8045  166.3027 C.ar    1  UNL1        0.0143
     11 C         141.9801  140.0698  166.8546 C.ar    1  UNL1        0.0579
     12 CL        140.9185  140.0051  167.9124 Cl      1  UNL1       -0.0822
     13 C         142.4548  141.3998  166.3489 C.ar    1  UNL1        0.0143
     14 C         143.5164  141.4645  165.2911 C.ar    1  UNL1        0.0343
     15 C         144.0256  138.9350  160.9993 C.3     1  UNL1        0.1778
     16 C         143.2552  137.8771  161.7322 C.3     1  UNL1        0.0901
     17 C         141.7591  137.9559  161.8085 C.3     1  UNL1        0.2090
     18 O         141.0996  139.1928  162.3425 O.3     1  UNL1       -0.4753
     19 C         140.1483  139.0961  163.4983 C.ar    1  UNL1        0.1387
     20 C         139.5002  140.3348  164.0419 C.ar    1  UNL1        0.0392
     21 C         138.5490  140.2381  165.1976 C.ar    1  UNL1        0.0327
     22 C         138.2459  138.9027  165.8098 C.ar    1  UNL1        0.1403
     23 F         137.2947  138.8060  166.9656 F       1  UNL1       -0.2042
     24 C         138.8940  137.6640  165.2663 C.ar    1  UNL1        0.0327
     25 C         139.8452  137.7607  164.1105 C.ar    1  UNL1        0.0392
@<TRIPOS>BOND
     1     3     4    2
     2     4     1    1
     3     1    15    1
     4    15    16    1
     5    16    17    1
     6    17    18    1
     7    18    19    1
     8    19    20   ar
     9    20    21   ar
    10    21    22   ar
    11    22    23    1
    12    22    24   ar
    13    24    25   ar
    14     4     6    1
    15     6     8    1
    16     8     9   ar
    17     9    10   ar
    18    10    11   ar
    19    11    12    1
    20    11    13   ar
    21    13    14   ar
    22    25    19   ar
    23    14     8   ar
    24     3     5    1
    25     1     2    1
    26     6     7    1
@<TRIPOS>MOLECULE
*****
 25 26 0 0 0
SMALL
GASTEIGER

@<TRIPOS>ATOM
      1 N         138.2475  141.2574  161.2437 N.pl3   1  UNL1       -0.2619
      2 H         139.0472  141.5008  160.7237 H       1  UNL1        0.2588
      3 N         137.7614  143.6616  162.1003 N.pl3   1  UNL1       -0.1293
      4 C         137.7408  142.1772  162.3150 C.cat   1  UNL1        0.3840
      5 H         138.1074  144.0322  161.2565 H       1  UNL1        0.3062
      6 N         137.2136  141.6125  163.6007 N.pl3   1  UNL1       -0.2424
      7 H         136.2483  141.4516  163.7085 H       1  UNL1        0.2649
      8 C         138.1571  141.2930  164.7221 C.ar    1  UNL1        0.1168
      9 C         139.1015  142.3421  165.2296 C.ar    1  UNL1        0.0343
     10 C         140.0450  142.0225  166.3511 C.ar    1  UNL1        0.0143
     11 C         140.0441  140.6540  166.9651 C.ar    1  UNL1        0.0579
     12 CL        140.9876  140.3344  168.0867 Cl      1  UNL1       -0.0822
     13 C         139.0997  139.6049  166.4577 C.ar    1  UNL1        0.0143
     14 C         138.1562  139.9244  165.3362 C.ar    1  UNL1        0.0343
     15 C         137.5356  139.9669  160.9648 C.3     1  UNL1        0.1778
     16 C         137.9338  138.7180  161.6938 C.3     1  UNL1        0.0901
     17 C         139.1870  137.9905  161.3060 C.3     1  UNL1        0.2090
     18 O         140.0208  137.3200  162.3573 O.3     1  UNL1       -0.4753
     19 C         140.9292  138.1368  163.2279 C.ar    1  UNL1        0.1387
     20 C         141.2249  139.5638  162.8728 C.ar    1  UNL1        0.0392
     21 C         142.1332  140.3805  163.7434 C.ar    1  UNL1        0.0327
     22 C         142.7458  139.7702  164.9690 C.ar    1  UNL1        0.1403
     23 F         143.6541  140.5870  165.8396 F       1  UNL1       -0.2042
     24 C         142.4501  138.3432  165.3241 C.ar    1  UNL1        0.0327
     25 C         141.5418  137.5265  164.4535 C.ar    1  UNL1        0.0392
@<TRIPOS>BOND
     1     3     4    2
     2     4     1    1
     3     1    15    1
     4    15    16    1
     5    16    17    1
     6    17    18    1
     7    18    19    1
     8    19    20   ar
     9    20    21   ar
    10    21    22   ar
    11    22    23    1
    12    22    24   ar
    13    24    25   ar
    14     4     6    1
    15     6     8    1
    16     8     9   ar
    17     9    10   ar
    18    10    11   ar
    19    11    12    1
    20    11    13   ar
    21    13    14   ar
    22    25    19   ar
    23    14     8   ar
    24     3     5    1
    25     1     2    1
    26     6     7    1
@<TRIPOS>MOLECULE
*****
 25 26 0 0 0
SMALL
GASTEIGER

@<TRIPOS>ATOM
      1 N         137.6459  144.1854  162.5358 N.pl3   1  UNL1       -0.2619
      2 H         136.7168  144.5108  162.5462 H       1  UNL1        0.2588
      3 N         139.2290  145.9988  161.5583 N.pl3   1  UNL1       -0.1293
      4 C         138.7806  145.1506  162.7114 C.cat   1  UNL1        0.3840
      5 H         138.7785  145.9220  160.6863 H       1  UNL1        0.3062
      6 N         139.4670  145.2676  164.0399 N.pl3   1  UNL1       -0.2424
      7 H         139.0273  145.7438  164.7809 H       1  UNL1        0.2649
      8 C         140.8234  144.6591  164.2395 C.ar    1  UNL1        0.1168
      9 C         140.9661  143.3821  165.0135 C.ar    1  UNL1        0.0343
     10 C         142.3226  142.7736  165.2130 C.ar    1  UNL1        0.0143
     11 C         143.5363  143.4421  164.6385 C.ar    1  UNL1        0.0579
     12 CL        144.8928  142.8335  164.8381 Cl      1  UNL1       -0.0822
     13 C         143.3936  144.7190  163.8645 C.ar    1  UNL1        0.0143
     14 C         142.0372  145.3275  163.6650 C.ar    1  UNL1        0.0343
     15 C         137.9267  142.7244  162.3444 C.3     1  UNL1        0.1778
     16 C         137.9002  141.7951  163.5215 C.3     1  UNL1        0.0901
     17 C         138.3305  140.3673  163.3597 C.3     1  UNL1        0.2090
     18 O         139.0177  139.6585  164.4890 O.3     1  UNL1       -0.4753
     19 C         140.5133  139.5437  164.5030 C.ar    1  UNL1        0.1387
     20 C         141.2940  139.7608  163.2408 C.ar    1  UNL1        0.0392
     21 C         142.7895  139.6460  163.2548 C.ar    1  UNL1        0.0327
     22 C         143.5043  139.3140  164.5311 C.ar    1  UNL1        0.1403
     23 F         144.9999  139.1992  164.5451 F       1  UNL1       -0.2042
     24 C         142.7235  139.0969  165.7933 C.ar    1  UNL1        0.0327
     25 C         141.2280  139.2117  165.7793 C.ar    1  UNL1        0.0392
@<TRIPOS>BOND
     1     3     4    2
     2     4     1    1
     3     1    15    1
     4    15    16    1
     5    16    17    1
     6    17    18    1
     7    18    19    1
     8    19    20   ar
     9    20    21   ar
    10    21    22   ar
    11    22    23    1
    12    22    24   ar
    13    24    25   ar
    14     4     6    1
    15     6     8    1
    16     8     9   ar
    17     9    10   ar
    18    10    11   ar
    19    11    12    1
    20    11    13   ar
    21    13    14   ar
    22    25    19   ar
    23    14     8   ar
    24     3     5    1
    25     1     2    1
    26     6     7    1
@<TRIPOS>MOLECULE
*****
 25 26 0 0 0
SMALL
GASTEIGER

@<TRIPOS>ATOM
      1 N         140.1322  145.1957  163.5494 N.pl3   1  UNL1       -0.2619
      2 H         139.8512  145.0977  164.4878 H       1  UNL1        0.2588
      3 N         139.3568  146.3865  161.3743 N.pl3   1  UNL1       -0.1293
      4 C         139.1044  145.4004  162.4761 C.cat   1  UNL1        0.3840
      5 H         140.1970  146.8993  161.3556 H       1  UNL1        0.3062
      6 N         137.8244  144.6191  162.5047 N.pl3   1  UNL1       -0.2424
      7 H         136.9661  145.0847  162.6305 H       1  UNL1        0.2649
      8 C         137.8520  143.1282  162.3416 C.ar    1  UNL1        0.1168
      9 C         137.4588  142.2412  163.4856 C.ar    1  UNL1        0.0343
     10 C         137.4864  140.7503  163.3225 C.ar    1  UNL1        0.0143
     11 C         137.9072  140.1465  162.0155 C.ar    1  UNL1        0.0579
     12 CL        137.9348  138.6556  161.8524 Cl      1  UNL1       -0.0822
     13 C         138.3004  141.0335  160.8715 C.ar    1  UNL1        0.0143
     14 C         138.2728  142.5243  161.0346 C.ar    1  UNL1        0.0343
     15 C         141.5882  145.1404  163.1928 C.3     1  UNL1        0.1778
     16 C         142.5657  144.4946  164.1295 C.3     1  UNL1        0.0901
     17 C         142.3495  143.0806  164.5812 C.3     1  UNL1        0.2090
     18 O         141.1586  142.7368  165.4258 O.3     1  UNL1       -0.4753
     19 C         140.6131  141.3395  165.4199 C.ar    1  UNL1        0.1387
     20 C         139.5783  140.9341  166.4272 C.ar    1  UNL1        0.0392
     21 C         139.0328  139.5368  166.4212 C.ar    1  UNL1        0.0327
     22 C         139.5221  138.5450  165.4079 C.ar    1  UNL1        0.1403
     23 F         138.9766  137.1477  165.4020 F       1  UNL1       -0.2042
     24 C         140.5569  138.9504  164.4006 C.ar    1  UNL1        0.0327
     25 C         141.1024  140.3476  164.4066 C.ar    1  UNL1        0.0392
@<TRIPOS>BOND
     1     3     4    2
     2     4     1    1
     3     1    15    1
     4    15    16    1
     5    16    17    1
     6    17    18    1
     7    18    19    1
     8    19    20   ar
     9    20    21   ar
    10    21    22   ar
    11    22    23    1
    12    22    24   ar
    13    24    25   ar
    14     4     6    1
    15     6     8    1
    16     8     9   ar
    17     9    10   ar
    18    10    11   ar
    19    11    12    1
    20    11    13   ar
    21    13    14   ar
    22    25    19   ar
    23    14     8   ar
    24     3     5    1
    25     1     2    1
    26     6     7    1
@<TRIPOS>MOLECULE
*****
 25 26 0 0 0
SMALL
GASTEIGER

@<TRIPOS>ATOM
      1 N         137.5126  143.9287  163.0535 N.pl3   1  UNL1       -0.2619
      2 H         137.2645  144.7048  162.5009 H       1  UNL1        0.2588
      3 N         138.2452  142.4080  161.0785 N.pl3   1  UNL1       -0.1293
      4 C         137.6175  142.5678  162.4314 C.cat   1  UNL1        0.3840
      5 H         138.5883  143.1963  160.5988 H       1  UNL1        0.3062
      6 N         137.0947  141.3668  163.1622 N.pl3   1  UNL1       -0.2424
      7 H         136.1380  141.3046  163.3860 H       1  UNL1        0.2649
      8 C         138.0296  140.2605  163.5522 C.ar    1  UNL1        0.1168
      9 C         138.6272  140.2334  164.9277 C.ar    1  UNL1        0.0343
     10 C         139.5622  139.1271  165.3176 C.ar    1  UNL1        0.0143
     11 C         139.8994  138.0479  164.3320 C.ar    1  UNL1        0.0579
     12 CL        140.8344  136.9415  164.7219 Cl      1  UNL1       -0.0822
     13 C         139.3018  138.0749  162.9564 C.ar    1  UNL1        0.0143
     14 C         138.3669  139.1812  162.5665 C.ar    1  UNL1        0.0343
     15 C         137.7858  144.1072  164.5175 C.3     1  UNL1        0.1778
     16 C         139.0536  144.7699  164.9685 C.3     1  UNL1        0.0901
     17 C         140.2921  144.6702  164.1281 C.3     1  UNL1        0.2090
     18 O         140.4891  143.4932  163.2194 O.3     1  UNL1       -0.4753
     19 C         141.3592  142.3500  163.6507 C.ar    1  UNL1        0.1387
     20 C         141.8806  142.2930  165.0560 C.ar    1  UNL1        0.0392
     21 C         142.7508  141.1498  165.4873 C.ar    1  UNL1        0.0327
     22 C         143.0994  140.0637  164.5133 C.ar    1  UNL1        0.1403
     23 F         143.9696  138.9205  164.9446 F       1  UNL1       -0.2042
     24 C         142.5780  140.1207  163.1080 C.ar    1  UNL1        0.0327
     25 C         141.7079  141.2638  162.6767 C.ar    1  UNL1        0.0392
@<TRIPOS>BOND
     1     3     4    2
     2     4     1    1
     3     1    15    1
     4    15    16    1
     5    16    17    1
     6    17    18    1
     7    18    19    1
     8    19    20   ar
     9    20    21   ar
    10    21    22   ar
    11    22    23    1
    12    22    24   ar
    13    24    25   ar
    14     4     6    1
    15     6     8    1
    16     8     9   ar
    17     9    10   ar
    18    10    11   ar
    19    11    12    1
    20    11    13   ar
    21    13    14   ar
    22    25    19   ar
    23    14     8   ar
    24     3     5    1
    25     1     2    1
    26     6     7    1
@<TRIPOS>MOLECULE
*****
 25 26 0 0 0
SMALL
GASTEIGER

@<TRIPOS>ATOM
      1 N         140.9501  145.7646  162.2215 N.pl3   1  UNL1       -0.2619
      2 H         141.2320  146.4263  161.5492 H       1  UNL1        0.2588
      3 N         143.4156  145.0593  162.6386 N.pl3   1  UNL1       -0.1293
      4 C         141.9768  145.0662  163.0630 C.cat   1  UNL1        0.3840
      5 H         143.6859  145.5131  161.8079 H       1  UNL1        0.3062
      6 N         141.5649  144.3748  164.3287 N.pl3   1  UNL1       -0.2424
      7 H         141.1326  144.8859  165.0506 H       1  UNL1        0.2649
      8 C         141.8115  142.9045  164.4945 C.ar    1  UNL1        0.1168
      9 C         141.5454  141.9662  163.3549 C.ar    1  UNL1        0.0343
     10 C         141.7920  140.4959  163.5208 C.ar    1  UNL1        0.0143
     11 C         142.3047  139.9640  164.8263 C.ar    1  UNL1        0.0579
     12 CL        142.5513  138.4937  164.9922 Cl      1  UNL1       -0.0822
     13 C         142.5707  140.9023  165.9659 C.ar    1  UNL1        0.0143
     14 C         142.3241  142.3726  165.8001 C.ar    1  UNL1        0.0343
     15 C         139.4939  145.4549  162.4043 C.3     1  UNL1        0.1778
     16 C         138.9761  144.0796  162.1035 C.3     1  UNL1        0.0901
     17 C         137.9077  143.4752  162.9657 C.3     1  UNL1        0.2090
     18 O         137.3245  142.1395  162.6115 O.3     1  UNL1       -0.4753
     19 C         137.8393  140.8965  163.2751 C.ar    1  UNL1        0.1387
     20 C         138.0719  139.6555  162.4654 C.ar    1  UNL1        0.0392
     21 C         138.5866  138.4126  163.1290 C.ar    1  UNL1        0.0327
     22 C         138.8686  138.4109  164.6022 C.ar    1  UNL1        0.1403
     23 F         139.3834  137.1679  165.2658 F       1  UNL1       -0.2042
     24 C         138.6360  139.6519  165.4119 C.ar    1  UNL1        0.0327
     25 C         138.1213  140.8948  164.7483 C.ar    1  UNL1        0.0392
@<TRIPOS>BOND
     1     3     4    2
     2     4     1    1
     3     1    15    1
     4    15    16    1
     5    16    17    1
     6    17    18    1
     7    18    19    1
     8    19    20   ar
     9    20    21   ar
    10    21    22   ar
    11    22    23    1
    12    22    24   ar
    13    24    25   ar
    14     4     6    1
    15     6     8    1
    16     8     9   ar
    17     9    10   ar
    18    10    11   ar
    19    11    12    1
    20    11    13   ar
    21    13    14   ar
    22    25    19   ar
    23    14     8   ar
    24     3     5    1
    25     1     2    1
    26     6     7    1
@<TRIPOS>MOLECULE
*****
 25 26 0 0 0
SMALL
GASTEIGER

@<TRIPOS>ATOM
      1 N         138.1101  139.1087  165.5047 N.pl3   1  UNL1       -0.2619
      2 H         137.6818  139.9342  165.1818 H       1  UNL1        0.2588
      3 N         136.9888  137.6543  167.3424 N.pl3   1  UNL1       -0.1293
      4 C         137.9783  138.7090  166.9445 C.cat   1  UNL1        0.3840
      5 H         136.4258  137.2244  166.6587 H       1  UNL1        0.3062
      6 N         138.8360  139.3640  167.9862 N.pl3   1  UNL1       -0.2424
      7 H         138.6159  139.2620  168.9403 H       1  UNL1        0.2649
      8 C         140.0291  140.1744  167.5742 C.ar    1  UNL1        0.1168
      9 C         140.0006  141.6688  167.7006 C.ar    1  UNL1        0.0343
     10 C         141.1938  142.4792  167.2886 C.ar    1  UNL1        0.0143
     11 C         142.4153  141.7952  166.7501 C.ar    1  UNL1        0.0579
     12 CL        143.6085  142.6056  166.3381 Cl      1  UNL1       -0.0822
     13 C         142.4438  140.3008  166.6237 C.ar    1  UNL1        0.0143
     14 C         141.2507  139.4904  167.0357 C.ar    1  UNL1        0.0343
     15 C         138.8945  138.2506  164.5569 C.3     1  UNL1        0.1778
     16 C         138.5900  138.2831  163.0885 C.3     1  UNL1        0.0901
     17 C         138.2858  139.5881  162.4143 C.3     1  UNL1        0.2090
     18 O         139.3156  140.6786  162.3918 O.3     1  UNL1       -0.4753
     19 C         139.1399  141.8940  163.2532 C.ar    1  UNL1        0.1387
     20 C         140.3130  142.7816  163.5461 C.ar    1  UNL1        0.0392
     21 C         140.1373  143.9970  164.4075 C.ar    1  UNL1        0.0327
     22 C         138.7884  144.3247  164.9759 C.ar    1  UNL1        0.1403
     23 F         138.6127  145.5401  165.8373 F       1  UNL1       -0.2042
     24 C         137.6152  143.4371  164.6830 C.ar    1  UNL1        0.0327
     25 C         137.7910  142.2217  163.8216 C.ar    1  UNL1        0.0392
@<TRIPOS>BOND
     1     3     4    2
     2     4     1    1
     3     1    15    1
     4    15    16    1
     5    16    17    1
     6    17    18    1
     7    18    19    1
     8    19    20   ar
     9    20    21   ar
    10    21    22   ar
    11    22    23    1
    12    22    24   ar
    13    24    25   ar
    14     4     6    1
    15     6     8    1
    16     8     9   ar
    17     9    10   ar
    18    10    11   ar
    19    11    12    1
    20    11    13   ar
    21    13    14   ar
    22    25    19   ar
    23    14     8   ar
    24     3     5    1
    25     1     2    1
    26     6     7    1
@<TRIPOS>MOLECULE
*****
 25 26 0 0 0
SMALL
GASTEIGER

@<TRIPOS>ATOM
      1 N         139.4633  138.6127  164.2010 N.pl3   1  UNL1       -0.2619
      2 H         139.6446  139.5801  164.2193 H       1  UNL1        0.2588
      3 N         139.1087  137.4131  161.9238 N.pl3   1  UNL1       -0.1293
      4 C         139.9957  137.7709  163.0794 C.cat   1  UNL1        0.3840
      5 H         138.1772  137.7309  161.9015 H       1  UNL1        0.3062
      6 N         141.4150  137.2868  163.1134 N.pl3   1  UNL1       -0.2424
      7 H         141.6101  136.3265  163.0180 H       1  UNL1        0.2649
      8 C         142.5372  138.2658  163.2926 C.ar    1  UNL1        0.1168
      9 C         143.1500  138.9315  162.0962 C.ar    1  UNL1        0.0343
     10 C         144.2722  139.9106  162.2754 C.ar    1  UNL1        0.0143
     11 C         144.7816  140.2240  163.6510 C.ar    1  UNL1        0.0579
     12 CL        145.9039  141.2031  163.8303 Cl      1  UNL1       -0.0822
     13 C         144.1688  139.5583  164.8474 C.ar    1  UNL1        0.0143
     14 C         143.0467  138.5792  164.6682 C.ar    1  UNL1        0.0343
     15 C         138.6547  137.9804  165.2947 C.3     1  UNL1        0.1778
     16 C         138.3745  138.7418  166.5563 C.3     1  UNL1        0.0901
     17 C         139.2899  139.8515  166.9816 C.3     1  UNL1        0.2090
     18 O         139.5339  141.0148  166.0667 O.3     1  UNL1       -0.4753
     19 C         140.8828  141.6699  166.0297 C.ar    1  UNL1        0.1387
     20 C         141.7755  141.6171  167.2340 C.ar    1  UNL1        0.0392
     21 C         143.1243  142.2722  167.1969 C.ar    1  UNL1        0.0327
     22 C         143.5805  142.9801  165.9556 C.ar    1  UNL1        0.1403
     23 F         144.9294  143.6352  165.9186 F       1  UNL1       -0.2042
     24 C         142.6878  143.0329  164.7514 C.ar    1  UNL1        0.0327
     25 C         141.3389  142.3778  164.7884 C.ar    1  UNL1        0.0392
@<TRIPOS>BOND
     1     3     4    2
     2     4     1    1
     3     1    15    1
     4    15    16    1
     5    16    17    1
     6    17    18    1
     7    18    19    1
     8    19    20   ar
     9    20    21   ar
    10    21    22   ar
    11    22    23    1
    12    22    24   ar
    13    24    25   ar
    14     4     6    1
    15     6     8    1
    16     8     9   ar
    17     9    10   ar
    18    10    11   ar
    19    11    12    1
    20    11    13   ar
    21    13    14   ar
    22    25    19   ar
    23    14     8   ar
    24     3     5    1
    25     1     2    1
    26     6     7    1
@<TRIPOS>MOLECULE
*****
 25 26 0 0 0
SMALL
GASTEIGER

@<TRIPOS>ATOM
      1 N         140.0528  145.1723  163.8423 N.pl3   1  UNL1       -0.2619
      2 H         140.2948  145.2853  164.7899 H       1  UNL1        0.2588
      3 N         140.6153  145.8094  161.3871 N.pl3   1  UNL1       -0.1293
      4 C         141.0663  145.4478  162.7713 C.cat   1  UNL1        0.3840
      5 H         139.6542  145.8659  161.1816 H       1  UNL1        0.3062
      6 N         142.5307  145.3617  163.0845 N.pl3   1  UNL1       -0.2424
      7 H         143.0707  146.1828  163.1427 H       1  UNL1        0.2649
      8 C         143.1722  144.0246  163.3090 C.ar    1  UNL1        0.1168
      9 C         142.8829  142.8875  162.3744 C.ar    1  UNL1        0.0343
     10 C         143.5245  141.5503  162.5990 C.ar    1  UNL1        0.0143
     11 C         144.4554  141.3503  163.7580 C.ar    1  UNL1        0.0579
     12 CL        145.0970  140.0131  163.9826 Cl      1  UNL1       -0.0822
     13 C         144.7447  142.4873  164.6926 C.ar    1  UNL1        0.0143
     14 C         144.1031  143.8245  164.4681 C.ar    1  UNL1        0.0343
     15 C         138.6705  144.7248  163.4695 C.3     1  UNL1        0.1778
     16 C         137.9082  143.8078  164.3794 C.3     1  UNL1        0.0901
     17 C         138.4597  142.4531  164.7125 C.3     1  UNL1        0.2090
     18 O         139.7647  142.0086  164.1217 O.3     1  UNL1       -0.4753
     19 C         140.6982  141.1515  164.9243 C.ar    1  UNL1        0.1387
     20 C         140.9488  139.7299  164.5166 C.ar    1  UNL1        0.0392
     21 C         141.8823  138.8730  165.3192 C.ar    1  UNL1        0.0327
     22 C         142.5651  139.4376  166.5295 C.ar    1  UNL1        0.1403
     23 F         143.4986  138.5806  167.3322 F       1  UNL1       -0.2042
     24 C         142.3146  140.8592  166.9373 C.ar    1  UNL1        0.0327
     25 C         141.3811  141.7161  166.1346 C.ar    1  UNL1        0.0392
@<TRIPOS>BOND
     1     3     4    2
     2     4     1    1
     3     1    15    1
     4    15    16    1
     5    16    17    1
     6    17    18    1
     7    18    19    1
     8    19    20   ar
     9    20    21   ar
    10    21    22   ar
    11    22    23    1
    12    22    24   ar
    13    24    25   ar
    14     4     6    1
    15     6     8    1
    16     8     9   ar
    17     9    10   ar
    18    10    11   ar
    19    11    12    1
    20    11    13   ar
    21    13    14   ar
    22    25    19   ar
    23    14     8   ar
    24     3     5    1
    25     1     2    1
    26     6     7    1
