@<TRIPOS>MOLECULE
*****
 53 60 0 0 0
SMALL
GASTEIGER

@<TRIPOS>ATOM
      1 C         143.2768  141.4127  163.3436 C.ar    1  UNL1        0.2216
      2 N         144.5720  142.0346  162.9128 N.ar    1  UNL1       -0.2120
      3 C         144.7369  142.5244  161.5047 C.ar    1  UNL1        0.1048
      4 C         143.6066  142.3924  160.5274 C.ar    1  UNL1        0.0551
      5 C         143.7716  142.8823  159.1192 C.ar    1  UNL1        0.0061
      6 C         142.6413  142.7503  158.1420 C.ar    1  UNL1        0.0179
      7 C         141.3460  142.1284  158.5729 C.ar    1  UNL1        0.0829
      8 N         141.1811  141.6385  159.9810 N.ar    1  UNL1       -0.2264
      9 C         142.3114  141.7706  160.9583 C.ar    1  UNL1        0.1666
     10 N         142.1465  141.2807  162.3664 N.ar    1  UNL1       -0.1945
     11 N         142.7819  139.9431  167.5681 N.3     1  UNL1       -0.2686
     12 C         142.6756  141.4086  167.2666 C.3     1  UNL1        0.0939
     13 C         142.8406  141.8985  165.8584 C.3     1  UNL1        0.1109
     14 N         143.1118  140.9229  164.7518 N.pl3   1  UNL1       -0.2753
     15 C         143.2181  139.4573  165.0533 C.3     1  UNL1        0.1109
     16 C         143.0532  138.9674  166.4614 C.3     1  UNL1        0.0939
     17 C         142.6170  139.4532  168.9762 C.3     1  UNL1        0.0897
     18 C         141.3144  139.6539  169.6923 C.3     1  UNL1        0.0897
     19 C         141.8862  141.6858  171.2071 C.3     1  UNL1        0.0897
     20 N         140.9614  141.0039  170.2429 N.3     1  UNL1       -0.2691
     21 C         139.6837  141.6719  169.8291 C.3     1  UNL1        0.0897
     22 C         142.8062  143.2401  156.7339 C.ar    1  UNL1        0.0015
     23 C         143.4621  142.3649  155.7073 C.ar    1  UNL1        0.0000
     24 C         143.6270  142.8547  154.2992 C.ar    1  UNL1        0.0000
     25 C         143.1361  144.2198  153.9176 C.ar    1  UNL1        0.0000
     26 C         142.4802  145.0950  154.9441 C.ar    1  UNL1        0.0000
     27 C         142.3153  144.6052  156.3523 C.ar    1  UNL1        0.0000
     28 C         140.2157  141.9963  157.5957 C.ar    1  UNL1        0.0177
     29 C         140.1207  140.7834  156.7182 C.ar    1  UNL1        0.0012
     30 C         138.9904  140.6514  155.7410 C.ar    1  UNL1       -0.0029
     31 C         137.9552  141.7323  155.6412 C.ar    1  UNL1       -0.0061
     32 C         138.0502  142.9452  156.5186 C.ar    1  UNL1       -0.0029
     33 C         139.1805  143.0772  157.4959 C.ar    1  UNL1        0.0012
     34 C         136.8249  141.6003  154.6640 C.3     1  UNL1        0.0991
     35 N         135.4525  141.2376  155.1490 N.3     1  UNL1       -0.2689
     36 C         135.2877  140.4627  156.4227 C.3     1  UNL1        0.0728
     37 C         133.9154  140.1000  156.9078 C.3     1  UNL1        0.0249
     38 C         132.7079  140.5122  156.1191 C.3     1  UNL1        0.0613
     39 C         132.8728  141.2871  154.8453 C.3     1  UNL1        0.0249
     40 C         134.2450  141.6498  154.3603 C.3     1  UNL1        0.0728
     41 C         131.3356  140.1495  156.6041 C.ar    1  UNL1        0.1396
     42 N         130.0488  140.3946  155.8733 N.ar    1  UNL1       -0.1336
     43 N         128.9271  139.8747  156.7226 N.ar    1  UNL1       -0.1293
     44 C         129.5207  139.3081  157.9783 C.ar    1  UNL1        0.1633
     45 N         131.0092  139.4780  157.9051 N.ar    1  UNL1       -0.3246
     46 H         131.6580  139.1980  158.5905 H       1  UNL1        0.1686
     47 C         128.7593  138.6817  159.1088 C.ar    1  UNL1        0.0480
     48 C         128.4946  137.2053  159.1076 C.ar    1  UNL1        0.0802
     49 C         127.7333  136.5789  160.2381 C.ar    1  UNL1        0.3019
     50 N         127.2366  137.4289  161.3698 N.ar    1  UNL1       -0.1519
     51 O         126.4753  136.8025  162.5002 O.co2   1  UNL1       -0.6187
     52 C         127.5014  138.9055  161.3710 C.ar    1  UNL1        0.3019
     53 C         128.2627  139.5318  160.2405 C.ar    1  UNL1        0.0802
@<TRIPOS>UNITY_ATOM_ATTR
50 1
charge 1
51 1
charge -1
@<TRIPOS>BOND
     1    19    20    1
     2    20    21    1
     3    20    18    1
     4    18    17    1
     5    17    11    1
     6    11    12    1
     7    12    13    1
     8    13    14    1
     9    14     1    1
    10     1     2   ar
    11     2     3   ar
    12     3     4   ar
    13     4     5   ar
    14     5     6   ar
    15     6    22    1
    16    22    23   ar
    17    23    24   ar
    18    24    25   ar
    19    25    26   ar
    20    26    27   ar
    21     6     7   ar
    22     7    28    1
    23    28    29   ar
    24    29    30   ar
    25    30    31   ar
    26    31    34    1
    27    34    35    1
    28    35    36    1
    29    36    37    1
    30    37    38    1
    31    38    41    1
    32    41    42   ar
    33    42    43   ar
    34    43    44   ar
    35    44    47    1
    36    47    48   ar
    37    48    49   ar
    38    49    50   ar
    39    50    51    1
    40    50    52   ar
    41    52    53   ar
    42    44    45   ar
    43    38    39    1
    44    39    40    1
    45    31    32   ar
    46    32    33   ar
    47     7     8   ar
    48     8     9   ar
    49     9    10   ar
    50    14    15    1
    51    15    16    1
    52    16    11    1
    53    10     1   ar
    54     9     4   ar
    55    27    22   ar
    56    33    28   ar
    57    40    35    1
    58    45    41   ar
    59    53    47   ar
    60    45    46    1
@<TRIPOS>MOLECULE
*****
 53 60 0 0 0
SMALL
GASTEIGER

@<TRIPOS>ATOM
      1 C         142.9787  130.9691  156.5281 C.ar    1  UNL1        0.2216
      2 N         142.4157  130.7183  155.1607 N.ar    1  UNL1       -0.2120
      3 C         141.9116  131.8648  154.3353 C.ar    1  UNL1        0.1048
      4 C         141.9706  133.2622  154.8774 C.ar    1  UNL1        0.0551
      5 C         141.4665  134.4088  154.0519 C.ar    1  UNL1        0.0061
      6 C         141.5255  135.8062  154.5940 C.ar    1  UNL1        0.0179
      7 C         142.0887  136.0570  155.9615 C.ar    1  UNL1        0.0829
      8 N         142.5927  134.9104  156.7869 N.ar    1  UNL1       -0.2264
      9 C         142.5337  133.5130  156.2448 C.ar    1  UNL1        0.1666
     10 N         143.0378  132.3665  157.0702 N.ar    1  UNL1       -0.1945
     11 N         144.4910  127.5294  159.0044 N.3     1  UNL1       -0.2686
     12 C         145.0938  128.8932  159.1678 C.3     1  UNL1        0.0939
     13 C         144.5897  130.0398  158.3424 C.3     1  UNL1        0.1109
     14 N         143.4829  129.8225  157.3536 N.pl3   1  UNL1       -0.2753
     15 C         142.8801  128.4587  157.1902 C.3     1  UNL1        0.1109
     16 C         143.3841  127.3122  158.0156 C.3     1  UNL1        0.0939
     17 C         144.9950  126.3829  159.8298 C.3     1  UNL1        0.0897
     18 C         144.9680  126.4677  161.3271 C.3     1  UNL1        0.0897
     19 C         146.2642  126.4528  163.5788 C.3     1  UNL1        0.0897
     20 N         146.2462  126.6467  162.0915 N.3     1  UNL1       -0.2691
     21 C         147.5065  127.0196  161.3685 C.3     1  UNL1        0.0897
     22 C         141.0215  136.9527  153.7686 C.ar    1  UNL1        0.0015
     23 C         141.9442  137.6541  152.8163 C.ar    1  UNL1        0.0000
     24 C         141.4401  138.8006  151.9909 C.ar    1  UNL1        0.0000
     25 C         140.0134  139.2459  152.1178 C.ar    1  UNL1        0.0000
     26 C         139.0907  138.5446  153.0700 C.ar    1  UNL1        0.0000
     27 C         139.5947  137.3980  153.8955 C.ar    1  UNL1        0.0000
     28 C         142.1477  137.4544  156.5036 C.ar    1  UNL1        0.0177
     29 C         143.3407  138.3186  156.2211 C.ar    1  UNL1        0.0012
     30 C         143.3998  139.7160  156.7632 C.ar    1  UNL1       -0.0029
     31 C         142.2657  140.2491  157.5877 C.ar    1  UNL1       -0.0061
     32 C         141.0727  139.3849  157.8702 C.ar    1  UNL1       -0.0029
     33 C         141.0137  137.9875  157.3281 C.ar    1  UNL1        0.0012
     34 C         142.3247  141.6465  158.1298 C.3     1  UNL1        0.0991
     35 N         142.5528  141.8736  159.5949 N.3     1  UNL1       -0.2689
     36 C         143.9025  141.6094  160.1936 C.3     1  UNL1        0.0728
     37 C         144.1306  141.8365  161.6588 C.3     1  UNL1        0.0249
     38 C         143.0090  142.3278  162.5251 C.3     1  UNL1        0.0613
     39 C         141.6592  142.5920  161.9263 C.3     1  UNL1        0.0249
     40 C         141.4312  142.3649  160.4613 C.3     1  UNL1        0.0728
     41 C         143.2370  142.5549  163.9901 C.ar    1  UNL1        0.1396
     42 N         144.4223  143.2409  164.6020 N.ar    1  UNL1       -0.1336
     43 N         144.2377  143.2458  166.0906 N.ar    1  UNL1       -0.1293
     44 C         142.9381  142.5629  166.3987 C.ar    1  UNL1        0.1633
     45 N         142.3197  142.1358  165.1005 N.ar    1  UNL1       -0.3246
     46 H         141.4623  141.6635  164.9957 H       1  UNL1        0.1686
     47 C         142.3588  142.3451  167.7651 C.ar    1  UNL1        0.0480
     48 C         140.8720  142.2612  167.9446 C.ar    1  UNL1        0.0802
     49 C         140.2926  142.0435  169.3110 C.ar    1  UNL1        0.3019
     50 N         141.2001  141.9097  170.4978 N.ar    1  UNL1       -0.1519
     51 O         140.6208  141.6920  171.8641 O.co2   1  UNL1       -0.6187
     52 C         142.6870  141.9937  170.3182 C.ar    1  UNL1        0.3019
     53 C         143.2663  142.2114  168.9519 C.ar    1  UNL1        0.0802
@<TRIPOS>UNITY_ATOM_ATTR
50 1
charge 1
51 1
charge -1
@<TRIPOS>BOND
     1    19    20    1
     2    20    21    1
     3    20    18    1
     4    18    17    1
     5    17    11    1
     6    11    12    1
     7    12    13    1
     8    13    14    1
     9    14     1    1
    10     1     2   ar
    11     2     3   ar
    12     3     4   ar
    13     4     5   ar
    14     5     6   ar
    15     6    22    1
    16    22    23   ar
    17    23    24   ar
    18    24    25   ar
    19    25    26   ar
    20    26    27   ar
    21     6     7   ar
    22     7    28    1
    23    28    29   ar
    24    29    30   ar
    25    30    31   ar
    26    31    34    1
    27    34    35    1
    28    35    36    1
    29    36    37    1
    30    37    38    1
    31    38    41    1
    32    41    42   ar
    33    42    43   ar
    34    43    44   ar
    35    44    47    1
    36    47    48   ar
    37    48    49   ar
    38    49    50   ar
    39    50    51    1
    40    50    52   ar
    41    52    53   ar
    42    44    45   ar
    43    38    39    1
    44    39    40    1
    45    31    32   ar
    46    32    33   ar
    47     7     8   ar
    48     8     9   ar
    49     9    10   ar
    50    14    15    1
    51    15    16    1
    52    16    11    1
    53    10     1   ar
    54     9     4   ar
    55    27    22   ar
    56    33    28   ar
    57    40    35    1
    58    45    41   ar
    59    53    47   ar
    60    45    46    1
@<TRIPOS>MOLECULE
*****
 53 60 0 0 0
SMALL
GASTEIGER

@<TRIPOS>ATOM
      1 C         139.8318  148.8830  153.8255 C.ar    1  UNL1        0.2216
      2 N         140.7926  148.4726  152.7492 N.ar    1  UNL1       -0.2120
      3 C         141.2399  147.0445  152.6479 C.ar    1  UNL1        0.1048
      4 C         140.7265  146.0268  153.6229 C.ar    1  UNL1        0.0551
      5 C         141.1740  144.5986  153.5215 C.ar    1  UNL1        0.0061
      6 C         140.6606  143.5808  154.4965 C.ar    1  UNL1        0.0179
      7 C         139.6998  143.9913  155.5729 C.ar    1  UNL1        0.0829
      8 N         139.2524  145.4194  155.6742 N.ar    1  UNL1       -0.2264
      9 C         139.7658  146.4371  154.6992 C.ar    1  UNL1        0.1666
     10 N         139.3184  147.8652  154.8005 N.ar    1  UNL1       -0.1945
     11 N         138.4895  153.1674  154.1296 N.3     1  UNL1       -0.2686
     12 C         138.8289  152.5810  152.7914 C.3     1  UNL1        0.0939
     13 C         139.2763  151.1528  152.6900 C.3     1  UNL1        0.1109
     14 N         139.3844  150.3112  153.9269 N.pl3   1  UNL1       -0.2753
     15 C         139.0450  150.8976  155.2651 C.3     1  UNL1        0.1109
     16 C         138.5976  152.3257  155.3665 C.3     1  UNL1        0.0939
     17 C         138.0421  154.5955  154.2310 C.3     1  UNL1        0.0897
     18 C         138.5313  155.4565  155.3577 C.3     1  UNL1        0.0897
     19 C         136.2050  156.0590  156.3454 C.3     1  UNL1        0.0897
     20 N         137.6501  155.7102  156.5449 N.3     1  UNL1       -0.2691
     21 C         138.2143  155.6152  157.9315 C.3     1  UNL1        0.0897
     22 C         141.1080  142.1527  154.3952 C.ar    1  UNL1        0.0015
     23 C         140.2539  141.1481  153.6801 C.ar    1  UNL1        0.0000
     24 C         140.7012  139.7200  153.5788 C.ar    1  UNL1        0.0000
     25 C         142.0027  139.2964  154.1926 C.ar    1  UNL1        0.0000
     26 C         142.8568  140.3009  154.9077 C.ar    1  UNL1        0.0000
     27 C         142.4094  141.7291  155.0090 C.ar    1  UNL1        0.0000
     28 C         139.1864  142.9735  156.5479 C.ar    1  UNL1        0.0177
     29 C         140.0197  142.5824  157.7322 C.ar    1  UNL1        0.0012
     30 C         139.5063  141.5646  158.7072 C.ar    1  UNL1       -0.0029
     31 C         138.1596  140.9380  158.4979 C.ar    1  UNL1       -0.0061
     32 C         137.3263  141.3292  157.3136 C.ar    1  UNL1       -0.0029
     33 C         137.8397  142.3469  156.3386 C.ar    1  UNL1        0.0012
     34 C         137.6462  139.9203  159.4729 C.3     1  UNL1        0.0991
     35 N         138.0275  140.0097  160.9209 N.3     1  UNL1       -0.2689
     36 C         138.7136  138.8550  161.5885 C.3     1  UNL1        0.0728
     37 C         139.0949  138.9444  163.0365 C.3     1  UNL1        0.0249
     38 C         138.7901  140.1887  163.8168 C.3     1  UNL1        0.0613
     39 C         138.1040  141.3435  163.1491 C.3     1  UNL1        0.0249
     40 C         137.7228  141.2540  161.7012 C.3     1  UNL1        0.0728
     41 C         139.1714  140.2782  165.2648 C.ar    1  UNL1        0.1396
     42 N         138.6715  139.3892  166.3648 N.ar    1  UNL1       -0.1336
     43 N         139.3107  139.8340  167.6468 N.ar    1  UNL1       -0.1293
     44 C         140.2056  140.9979  167.3391 C.ar    1  UNL1        0.1633
     45 N         140.1195  141.2724  165.8670 N.ar    1  UNL1       -0.3246
     46 H         140.6008  141.9807  165.3813 H       1  UNL1        0.1686
     47 C         141.0401  141.7544  168.3298 C.ar    1  UNL1        0.0480
     48 C         142.4781  141.3821  168.5384 C.ar    1  UNL1        0.0802
     49 C         143.3126  142.1386  169.5290 C.ar    1  UNL1        0.3019
     50 N         142.7091  143.2674  170.3110 N.ar    1  UNL1       -0.1519
     51 O         143.5436  144.0239  171.3016 O.co2   1  UNL1       -0.6187
     52 C         141.2710  143.6397  170.1024 C.ar    1  UNL1        0.3019
     53 C         140.4366  142.8832  169.1118 C.ar    1  UNL1        0.0802
@<TRIPOS>UNITY_ATOM_ATTR
50 1
charge 1
51 1
charge -1
@<TRIPOS>BOND
     1    19    20    1
     2    20    21    1
     3    20    18    1
     4    18    17    1
     5    17    11    1
     6    11    12    1
     7    12    13    1
     8    13    14    1
     9    14     1    1
    10     1     2   ar
    11     2     3   ar
    12     3     4   ar
    13     4     5   ar
    14     5     6   ar
    15     6    22    1
    16    22    23   ar
    17    23    24   ar
    18    24    25   ar
    19    25    26   ar
    20    26    27   ar
    21     6     7   ar
    22     7    28    1
    23    28    29   ar
    24    29    30   ar
    25    30    31   ar
    26    31    34    1
    27    34    35    1
    28    35    36    1
    29    36    37    1
    30    37    38    1
    31    38    41    1
    32    41    42   ar
    33    42    43   ar
    34    43    44   ar
    35    44    47    1
    36    47    48   ar
    37    48    49   ar
    38    49    50   ar
    39    50    51    1
    40    50    52   ar
    41    52    53   ar
    42    44    45   ar
    43    38    39    1
    44    39    40    1
    45    31    32   ar
    46    32    33   ar
    47     7     8   ar
    48     8     9   ar
    49     9    10   ar
    50    14    15    1
    51    15    16    1
    52    16    11    1
    53    10     1   ar
    54     9     4   ar
    55    27    22   ar
    56    33    28   ar
    57    40    35    1
    58    45    41   ar
    59    53    47   ar
    60    45    46    1
@<TRIPOS>MOLECULE
*****
 53 60 0 0 0
SMALL
GASTEIGER

@<TRIPOS>ATOM
      1 C         141.2492  142.7440  163.1238 C.ar    1  UNL1        0.2216
      2 N         140.6826  144.0190  162.5730 N.ar    1  UNL1       -0.2120
      3 C         140.2746  144.0974  161.1317 C.ar    1  UNL1        0.1048
      4 C         140.4333  142.9008  160.2412 C.ar    1  UNL1        0.0551
      5 C         140.0253  142.9793  158.7998 C.ar    1  UNL1        0.0061
      6 C         140.1839  141.7828  157.9093 C.ar    1  UNL1        0.0179
      7 C         140.7506  140.5077  158.4601 C.ar    1  UNL1        0.0829
      8 N         141.1585  140.4293  159.9014 N.ar    1  UNL1       -0.2264
      9 C         140.9999  141.6258  160.7919 C.ar    1  UNL1        0.1666
     10 N         141.4078  141.5474  162.2332 N.ar    1  UNL1       -0.1945
     11 N         142.4730  142.5085  167.4478 N.3     1  UNL1       -0.2686
     12 C         143.5017  142.3507  166.3676 C.3     1  UNL1        0.0939
     13 C         143.0937  142.4291  164.9262 C.3     1  UNL1        0.1109
     14 N         141.6571  142.6655  164.5652 N.pl3   1  UNL1       -0.2753
     15 C         140.6285  142.8234  165.6454 C.3     1  UNL1        0.1109
     16 C         141.0364  142.7449  167.0867 C.3     1  UNL1        0.0939
     17 C         142.8809  142.4301  168.8891 C.3     1  UNL1        0.0897
     18 C         142.1777  141.4845  169.8172 C.3     1  UNL1        0.0897
     19 C         140.1319  139.9970  169.2236 C.3     1  UNL1        0.0897
     20 N         141.6170  140.1961  169.2919 N.3     1  UNL1       -0.2691
     21 C         142.5416  139.1069  168.8350 C.3     1  UNL1        0.0897
     22 C         139.7760  141.8612  156.4680 C.ar    1  UNL1        0.0015
     23 C         140.7597  142.3235  155.4341 C.ar    1  UNL1        0.0000
     24 C         140.3517  142.4019  153.9928 C.ar    1  UNL1        0.0000
     25 C         138.9601  142.0181  153.5853 C.ar    1  UNL1        0.0000
     26 C         137.9765  141.5557  154.6190 C.ar    1  UNL1        0.0000
     27 C         138.3844  141.4773  156.0604 C.ar    1  UNL1        0.0000
     28 C         140.9092  139.3112  157.5695 C.ar    1  UNL1        0.0177
     29 C         142.1756  139.1202  156.7885 C.ar    1  UNL1        0.0012
     30 C         142.3342  137.9236  155.8979 C.ar    1  UNL1       -0.0029
     31 C         141.2265  136.9181  155.7884 C.ar    1  UNL1       -0.0061
     32 C         139.9602  137.1091  156.5694 C.ar    1  UNL1       -0.0029
     33 C         139.8016  138.3057  157.4600 C.ar    1  UNL1        0.0012
     34 C         141.3851  135.7215  154.8978 C.3     1  UNL1        0.0991
     35 N         141.8606  134.4188  155.4696 N.3     1  UNL1       -0.2689
     36 C         141.3522  133.1236  154.9092 C.3     1  UNL1        0.0728
     37 C         141.8277  131.8209  155.4810 C.3     1  UNL1        0.0249
     38 C         142.8116  131.8134  156.6132 C.3     1  UNL1        0.0613
     39 C         143.3200  133.1086  157.1737 C.3     1  UNL1        0.0249
     40 C         142.8445  134.4113  156.6019 C.3     1  UNL1        0.0728
     41 C         143.2871  130.5108  157.1850 C.ar    1  UNL1        0.1396
     42 N         142.9712  129.1454  156.6502 N.ar    1  UNL1       -0.1336
     43 N         143.6508  128.1356  157.5267 N.ar    1  UNL1       -0.1293
     44 C         144.3868  128.8768  158.6033 C.ar    1  UNL1        0.1633
     45 N         144.1620  130.3448  158.3921 N.ar    1  UNL1       -0.3246
     46 H         144.5250  131.0716  158.9481 H       1  UNL1        0.1686
     47 C         145.2041  128.2586  159.6987 C.ar    1  UNL1        0.0480
     48 C         144.5235  127.6089  160.8668 C.ar    1  UNL1        0.0802
     49 C         145.3408  126.9907  161.9622 C.ar    1  UNL1        0.3019
     50 N         146.8387  127.0223  161.8895 N.ar    1  UNL1       -0.1519
     51 O         147.6560  126.4041  162.9848 O.co2   1  UNL1       -0.6187
     52 C         147.5193  127.6721  160.7212 C.ar    1  UNL1        0.3019
     53 C         146.7020  128.2902  159.6259 C.ar    1  UNL1        0.0802
@<TRIPOS>UNITY_ATOM_ATTR
50 1
charge 1
51 1
charge -1
@<TRIPOS>BOND
     1    19    20    1
     2    20    21    1
     3    20    18    1
     4    18    17    1
     5    17    11    1
     6    11    12    1
     7    12    13    1
     8    13    14    1
     9    14     1    1
    10     1     2   ar
    11     2     3   ar
    12     3     4   ar
    13     4     5   ar
    14     5     6   ar
    15     6    22    1
    16    22    23   ar
    17    23    24   ar
    18    24    25   ar
    19    25    26   ar
    20    26    27   ar
    21     6     7   ar
    22     7    28    1
    23    28    29   ar
    24    29    30   ar
    25    30    31   ar
    26    31    34    1
    27    34    35    1
    28    35    36    1
    29    36    37    1
    30    37    38    1
    31    38    41    1
    32    41    42   ar
    33    42    43   ar
    34    43    44   ar
    35    44    47    1
    36    47    48   ar
    37    48    49   ar
    38    49    50   ar
    39    50    51    1
    40    50    52   ar
    41    52    53   ar
    42    44    45   ar
    43    38    39    1
    44    39    40    1
    45    31    32   ar
    46    32    33   ar
    47     7     8   ar
    48     8     9   ar
    49     9    10   ar
    50    14    15    1
    51    15    16    1
    52    16    11    1
    53    10     1   ar
    54     9     4   ar
    55    27    22   ar
    56    33    28   ar
    57    40    35    1
    58    45    41   ar
    59    53    47   ar
    60    45    46    1
@<TRIPOS>MOLECULE
*****
 53 60 0 0 0
SMALL
GASTEIGER

@<TRIPOS>ATOM
      1 C         141.6012  143.5762  163.6050 C.ar    1  UNL1        0.2216
      2 N         141.0518  144.9552  163.3900 N.ar    1  UNL1       -0.2120
      3 C         140.7299  145.4263  162.0027 C.ar    1  UNL1        0.1048
      4 C         140.9573  144.5183  160.8306 C.ar    1  UNL1        0.0551
      5 C         140.6354  144.9895  159.4434 C.ar    1  UNL1        0.0061
      6 C         140.8628  144.0815  158.2713 C.ar    1  UNL1        0.0179
      7 C         141.4122  142.7024  158.4864 C.ar    1  UNL1        0.0829
      8 N         141.7342  142.2313  159.8736 N.ar    1  UNL1       -0.2264
      9 C         141.5067  143.1393  161.0457 C.ar    1  UNL1        0.1666
     10 N         141.8286  142.6682  162.4329 N.ar    1  UNL1       -0.1945
     11 N         142.5671  142.1627  167.7668 N.3     1  UNL1       -0.2686
     12 C         141.1374  142.3156  167.3396 C.3     1  UNL1        0.0939
     13 C         140.8154  142.7868  165.9523 C.3     1  UNL1        0.1109
     14 N         141.9231  143.1050  164.9923 N.pl3   1  UNL1       -0.2753
     15 C         143.3529  142.9521  165.4195 C.3     1  UNL1        0.1109
     16 C         143.6748  142.4809  166.8067 C.3     1  UNL1        0.0939
     17 C         142.8891  141.6916  169.1539 C.3     1  UNL1        0.0897
     18 C         142.2178  142.3256  170.3360 C.3     1  UNL1        0.0897
     19 C         140.5470  140.4817  171.0833 C.3     1  UNL1        0.0897
     20 N         140.8292  141.9099  170.7222 N.3     1  UNL1       -0.2691
     21 C         139.7229  142.9226  170.7473 C.3     1  UNL1        0.0897
     22 C         140.5409  144.5526  156.8841 C.ar    1  UNL1        0.0015
     23 C         141.5838  145.2618  156.0718 C.ar    1  UNL1        0.0000
     24 C         141.2618  145.7328  154.6846 C.ar    1  UNL1        0.0000
     25 C         139.8971  145.4948  154.1096 C.ar    1  UNL1        0.0000
     26 C         138.8542  144.7858  154.9217 C.ar    1  UNL1        0.0000
     27 C         139.1761  144.3146  156.3090 C.ar    1  UNL1        0.0000
     28 C         141.6397  141.7944  157.3143 C.ar    1  UNL1        0.0177
     29 C         140.5507  140.8677  156.8610 C.ar    1  UNL1        0.0012
     30 C         140.7781  139.9598  155.6889 C.ar    1  UNL1       -0.0029
     31 C         142.0946  139.9785  154.9701 C.ar    1  UNL1       -0.0061
     32 C         143.1835  140.9051  155.4234 C.ar    1  UNL1       -0.0029
     33 C         142.9561  141.8131  156.5955 C.ar    1  UNL1        0.0012
     34 C         142.3221  139.0705  153.7980 C.3     1  UNL1        0.0991
     35 N         142.4718  137.5933  154.0115 N.3     1  UNL1       -0.2689
     36 C         143.2768  137.0806  155.1687 C.3     1  UNL1        0.0728
     37 C         143.4266  135.6034  155.3822 C.3     1  UNL1        0.0249
     38 C         142.7713  134.6390  154.4386 C.3     1  UNL1        0.0613
     39 C         141.9662  135.1517  153.2814 C.3     1  UNL1        0.0249
     40 C         141.8165  136.6289  153.0679 C.3     1  UNL1        0.0728
     41 C         142.9210  133.1618  154.6521 C.ar    1  UNL1        0.1396
     42 N         142.9420  132.1136  153.5794 N.ar    1  UNL1       -0.1336
     43 N         143.1100  130.7775  154.2401 N.ar    1  UNL1       -0.1293
     44 C         143.1928  131.0000  155.7213 C.ar    1  UNL1        0.1633
     45 N         143.0760  132.4736  155.9758 N.ar    1  UNL1       -0.3246
     46 H         143.0973  132.9121  156.8570 H       1  UNL1        0.1686
     47 C         143.3626  129.9357  156.7646 C.ar    1  UNL1        0.0480
     48 C         142.5535  128.6750  156.6885 C.ar    1  UNL1        0.0802
     49 C         142.7234  127.6107  157.7318 C.ar    1  UNL1        0.3019
     50 N         143.7022  127.8072  158.8513 N.ar    1  UNL1       -0.1519
     51 O         143.8720  126.7430  159.8945 O.co2   1  UNL1       -0.6187
     52 C         144.5113  129.0681  158.9273 C.ar    1  UNL1        0.3019
     53 C         144.3415  130.1322  157.8840 C.ar    1  UNL1        0.0802
@<TRIPOS>UNITY_ATOM_ATTR
50 1
charge 1
51 1
charge -1
@<TRIPOS>BOND
     1    19    20    1
     2    20    21    1
     3    20    18    1
     4    18    17    1
     5    17    11    1
     6    11    12    1
     7    12    13    1
     8    13    14    1
     9    14     1    1
    10     1     2   ar
    11     2     3   ar
    12     3     4   ar
    13     4     5   ar
    14     5     6   ar
    15     6    22    1
    16    22    23   ar
    17    23    24   ar
    18    24    25   ar
    19    25    26   ar
    20    26    27   ar
    21     6     7   ar
    22     7    28    1
    23    28    29   ar
    24    29    30   ar
    25    30    31   ar
    26    31    34    1
    27    34    35    1
    28    35    36    1
    29    36    37    1
    30    37    38    1
    31    38    41    1
    32    41    42   ar
    33    42    43   ar
    34    43    44   ar
    35    44    47    1
    36    47    48   ar
    37    48    49   ar
    38    49    50   ar
    39    50    51    1
    40    50    52   ar
    41    52    53   ar
    42    44    45   ar
    43    38    39    1
    44    39    40    1
    45    31    32   ar
    46    32    33   ar
    47     7     8   ar
    48     8     9   ar
    49     9    10   ar
    50    14    15    1
    51    15    16    1
    52    16    11    1
    53    10     1   ar
    54     9     4   ar
    55    27    22   ar
    56    33    28   ar
    57    40    35    1
    58    45    41   ar
    59    53    47   ar
    60    45    46    1
@<TRIPOS>MOLECULE
*****
 53 60 0 0 0
SMALL
GASTEIGER

@<TRIPOS>ATOM
      1 C         139.7799  147.0974  155.4455 C.ar    1  UNL1        0.2216
      2 N         140.1980  146.0486  154.4581 N.ar    1  UNL1       -0.2120
      3 C         140.4886  144.6529  154.9244 C.ar    1  UNL1        0.1048
      4 C         140.3611  144.3061  156.3782 C.ar    1  UNL1        0.0551
      5 C         140.6517  142.9103  156.8446 C.ar    1  UNL1        0.0061
      6 C         140.5242  142.5635  158.2984 C.ar    1  UNL1        0.0179
      7 C         140.1060  143.6124  159.2858 C.ar    1  UNL1        0.0829
      8 N         139.8154  145.0081  158.8194 N.ar    1  UNL1       -0.2264
      9 C         139.9429  145.3549  157.3656 C.ar    1  UNL1        0.1666
     10 N         139.6523  146.7506  156.8992 N.ar    1  UNL1       -0.1945
     11 N         138.9080  151.2847  154.0465 N.3     1  UNL1       -0.2686
     12 C         139.6694  150.3419  153.1625 C.3     1  UNL1        0.0939
     13 C         139.9600  148.9461  153.6289 C.3     1  UNL1        0.1109
     14 N         139.4892  148.4932  154.9791 N.pl3   1  UNL1       -0.2753
     15 C         138.7278  149.4360  155.8631 C.3     1  UNL1        0.1109
     16 C         138.4372  150.8317  155.3968 C.3     1  UNL1        0.0939
     17 C         138.6173  152.6804  153.5802 C.3     1  UNL1        0.0897
     18 C         139.0651  153.8537  154.4005 C.3     1  UNL1        0.0897
     19 C         136.9486  155.3213  154.0589 C.3     1  UNL1        0.0897
     20 N         138.0536  154.8206  154.9410 N.3     1  UNL1       -0.2691
     21 C         138.1474  155.2870  156.3636 C.3     1  UNL1        0.0897
     22 C         140.8148  141.1678  158.7647 C.ar    1  UNL1        0.0015
     23 C         139.7645  140.1033  158.6460 C.ar    1  UNL1        0.0000
     24 C         140.0551  138.7076  159.1123 C.ar    1  UNL1        0.0000
     25 C         141.3959  138.3763  159.6975 C.ar    1  UNL1        0.0000
     26 C         142.4462  139.4406  159.8163 C.ar    1  UNL1        0.0000
     27 C         142.1556  140.8364  159.3499 C.ar    1  UNL1        0.0000
     28 C         139.9785  143.2656  160.7395 C.ar    1  UNL1        0.0177
     29 C         138.7166  142.6377  161.2529 C.ar    1  UNL1        0.0012
     30 C         138.5891  142.2909  162.7067 C.ar    1  UNL1       -0.0029
     31 C         139.7235  142.5720  163.6471 C.ar    1  UNL1       -0.0061
     32 C         140.9853  143.1999  163.1337 C.ar    1  UNL1       -0.0029
     33 C         141.1128  143.5467  161.6799 C.ar    1  UNL1        0.0012
     34 C         139.5960  142.2251  165.1009 C.3     1  UNL1        0.0991
     35 N         140.5370  141.2352  165.7211 N.3     1  UNL1       -0.2689
     36 C         141.3239  141.6114  166.9414 C.3     1  UNL1        0.0728
     37 C         142.2649  140.6214  167.5617 C.3     1  UNL1        0.0249
     38 C         142.4190  139.2554  166.9615 C.3     1  UNL1        0.0613
     39 C         141.6320  138.8793  165.7411 C.3     1  UNL1        0.0249
     40 C         140.6911  139.8692  165.1209 C.3     1  UNL1        0.0728
     41 C         143.3599  138.2655  167.5816 C.ar    1  UNL1        0.1396
     42 N         144.2633  137.3243  166.8412 N.ar    1  UNL1       -0.1336
     43 N         145.0244  136.5201  167.8531 N.ar    1  UNL1       -0.1293
     44 C         144.5915  136.9643  169.2189 C.ar    1  UNL1        0.1633
     45 N         143.5628  138.0430  169.0511 N.ar    1  UNL1       -0.3246
     46 H         143.1017  138.5210  169.7778 H       1  UNL1        0.1686
     47 C         145.0983  136.4245  170.5234 C.ar    1  UNL1        0.0480
     48 C         146.5110  136.6949  170.9488 C.ar    1  UNL1        0.0802
     49 C         147.0178  136.1551  172.2534 C.ar    1  UNL1        0.3019
     50 N         146.1119  135.3449  173.1325 N.ar    1  UNL1       -0.1519
     51 O         146.6187  134.8052  174.4370 O.co2   1  UNL1       -0.6187
     52 C         144.6990  135.0745  172.7070 C.ar    1  UNL1        0.3019
     53 C         144.1923  135.6143  171.4026 C.ar    1  UNL1        0.0802
@<TRIPOS>UNITY_ATOM_ATTR
50 1
charge 1
51 1
charge -1
@<TRIPOS>BOND
     1    19    20    1
     2    20    21    1
     3    20    18    1
     4    18    17    1
     5    17    11    1
     6    11    12    1
     7    12    13    1
     8    13    14    1
     9    14     1    1
    10     1     2   ar
    11     2     3   ar
    12     3     4   ar
    13     4     5   ar
    14     5     6   ar
    15     6    22    1
    16    22    23   ar
    17    23    24   ar
    18    24    25   ar
    19    25    26   ar
    20    26    27   ar
    21     6     7   ar
    22     7    28    1
    23    28    29   ar
    24    29    30   ar
    25    30    31   ar
    26    31    34    1
    27    34    35    1
    28    35    36    1
    29    36    37    1
    30    37    38    1
    31    38    41    1
    32    41    42   ar
    33    42    43   ar
    34    43    44   ar
    35    44    47    1
    36    47    48   ar
    37    48    49   ar
    38    49    50   ar
    39    50    51    1
    40    50    52   ar
    41    52    53   ar
    42    44    45   ar
    43    38    39    1
    44    39    40    1
    45    31    32   ar
    46    32    33   ar
    47     7     8   ar
    48     8     9   ar
    49     9    10   ar
    50    14    15    1
    51    15    16    1
    52    16    11    1
    53    10     1   ar
    54     9     4   ar
    55    27    22   ar
    56    33    28   ar
    57    40    35    1
    58    45    41   ar
    59    53    47   ar
    60    45    46    1
@<TRIPOS>MOLECULE
*****
 53 60 0 0 0
SMALL
GASTEIGER

@<TRIPOS>ATOM
      1 C         141.2115  143.5219  163.1792 C.ar    1  UNL1        0.2216
      2 N         140.8027  144.9224  162.8310 N.ar    1  UNL1       -0.2120
      3 C         140.5691  145.3013  161.3986 C.ar    1  UNL1        0.1048
      4 C         140.7444  144.2796  160.3144 C.ar    1  UNL1        0.0551
      5 C         140.5108  144.6586  158.8819 C.ar    1  UNL1        0.0061
      6 C         140.6860  143.6369  157.7977 C.ar    1  UNL1        0.0179
      7 C         141.0949  142.2363  158.1460 C.ar    1  UNL1        0.0829
      8 N         141.3284  141.8574  159.5784 N.ar    1  UNL1       -0.2264
      9 C         141.1532  142.8791  160.6626 C.ar    1  UNL1        0.1666
     10 N         141.3867  142.5002  162.0950 N.ar    1  UNL1       -0.1945
     11 N         141.9122  142.3851  167.4766 N.3     1  UNL1       -0.2686
     12 C         143.0546  142.3834  166.5045 C.3     1  UNL1        0.0939
     13 C         142.8210  142.7624  165.0720 C.3     1  UNL1        0.1109
     14 N         141.4451  143.1429  164.6117 N.pl3   1  UNL1       -0.2753
     15 C         140.3027  143.1445  165.5838 C.3     1  UNL1        0.1109
     16 C         140.5362  142.7656  167.0162 C.3     1  UNL1        0.0939
     17 C         142.1457  142.0061  168.9090 C.3     1  UNL1        0.0897
     18 C         142.8790  140.7402  169.2399 C.3     1  UNL1        0.0897
     19 C         142.8440  138.2793  170.0724 C.3     1  UNL1        0.0897
     20 N         142.1468  139.5916  169.8683 N.3     1  UNL1       -0.2691
     21 C         140.7174  139.7555  170.2925 C.3     1  UNL1        0.0897
     22 C         140.4525  144.0158  156.3653 C.ar    1  UNL1        0.0015
     23 C         139.1156  143.7671  155.7321 C.ar    1  UNL1        0.0000
     24 C         138.8820  144.1459  154.2997 C.ar    1  UNL1        0.0000
     25 C         139.9853  144.7735  153.5004 C.ar    1  UNL1        0.0000
     26 C         141.3222  145.0222  154.1335 C.ar    1  UNL1        0.0000
     27 C         141.5558  144.6433  155.5660 C.ar    1  UNL1        0.0000
     28 C         141.2701  141.2146  157.0618 C.ar    1  UNL1        0.0177
     29 C         140.1202  140.3365  156.6657 C.ar    1  UNL1        0.0012
     30 C         140.2954  139.3149  155.5815 C.ar    1  UNL1       -0.0029
     31 C         141.6206  139.1713  154.8934 C.ar    1  UNL1       -0.0061
     32 C         142.7704  140.0493  155.2895 C.ar    1  UNL1       -0.0029
     33 C         142.5952  141.0709  156.3737 C.ar    1  UNL1        0.0012
     34 C         141.7958  138.1496  153.8092 C.3     1  UNL1        0.0991
     35 N         142.1307  136.7308  154.1627 N.3     1  UNL1       -0.2689
     36 C         142.7597  136.4164  155.4876 C.3     1  UNL1        0.0728
     37 C         143.0946  134.9976  155.8411 C.3     1  UNL1        0.0249
     38 C         142.8004  133.8932  154.8696 C.3     1  UNL1        0.0613
     39 C         142.1713  134.2076  153.5447 C.3     1  UNL1        0.0249
     40 C         141.8365  135.6264  153.1912 C.3     1  UNL1        0.0728
     41 C         143.1352  132.4744  155.2231 C.ar    1  UNL1        0.1396
     42 N         143.7084  131.4460  154.2936 N.ar    1  UNL1       -0.1336
     43 N         143.8831  130.1709  155.0641 N.ar    1  UNL1       -0.1293
     44 C         143.4179  130.4113  156.4698 C.ar    1  UNL1        0.1633
     45 N         142.9557  131.8350  156.5680 N.ar    1  UNL1       -0.3246
     46 H         142.5974  132.2728  157.3737 H       1  UNL1        0.1686
     47 C         143.4154  129.4048  157.5820 C.ar    1  UNL1        0.0480
     48 C         144.3511  129.5676  158.7430 C.ar    1  UNL1        0.0802
     49 C         144.3485  128.5611  159.8551 C.ar    1  UNL1        0.3019
     50 N         143.4103  127.3918  159.8063 N.ar    1  UNL1       -0.1519
     51 O         143.4078  126.3853  160.9184 O.co2   1  UNL1       -0.6187
     52 C         142.4745  127.2290  158.6452 C.ar    1  UNL1        0.3019
     53 C         142.4771  128.2355  157.5331 C.ar    1  UNL1        0.0802
@<TRIPOS>UNITY_ATOM_ATTR
50 1
charge 1
51 1
charge -1
@<TRIPOS>BOND
     1    19    20    1
     2    20    21    1
     3    20    18    1
     4    18    17    1
     5    17    11    1
     6    11    12    1
     7    12    13    1
     8    13    14    1
     9    14     1    1
    10     1     2   ar
    11     2     3   ar
    12     3     4   ar
    13     4     5   ar
    14     5     6   ar
    15     6    22    1
    16    22    23   ar
    17    23    24   ar
    18    24    25   ar
    19    25    26   ar
    20    26    27   ar
    21     6     7   ar
    22     7    28    1
    23    28    29   ar
    24    29    30   ar
    25    30    31   ar
    26    31    34    1
    27    34    35    1
    28    35    36    1
    29    36    37    1
    30    37    38    1
    31    38    41    1
    32    41    42   ar
    33    42    43   ar
    34    43    44   ar
    35    44    47    1
    36    47    48   ar
    37    48    49   ar
    38    49    50   ar
    39    50    51    1
    40    50    52   ar
    41    52    53   ar
    42    44    45   ar
    43    38    39    1
    44    39    40    1
    45    31    32   ar
    46    32    33   ar
    47     7     8   ar
    48     8     9   ar
    49     9    10   ar
    50    14    15    1
    51    15    16    1
    52    16    11    1
    53    10     1   ar
    54     9     4   ar
    55    27    22   ar
    56    33    28   ar
    57    40    35    1
    58    45    41   ar
    59    53    47   ar
    60    45    46    1
@<TRIPOS>MOLECULE
*****
 53 60 0 0 0
SMALL
GASTEIGER

@<TRIPOS>ATOM
      1 C         140.1823  142.9404  163.4122 C.ar    1  UNL1        0.2216
      2 N         140.2392  144.4265  163.2168 N.ar    1  UNL1       -0.2120
      3 C         140.3357  144.9979  161.8332 C.ar    1  UNL1        0.1048
      4 C         140.3752  144.0831  160.6451 C.ar    1  UNL1        0.0551
      5 C         140.4716  144.6545  159.2615 C.ar    1  UNL1        0.0061
      6 C         140.5111  143.7398  158.0734 C.ar    1  UNL1        0.0179
      7 C         140.4542  142.2536  158.2688 C.ar    1  UNL1        0.0829
      8 N         140.3578  141.6822  159.6524 N.ar    1  UNL1       -0.2264
      9 C         140.3182  142.5970  160.8405 C.ar    1  UNL1        0.1666
     10 N         140.2218  142.0257  162.2240 N.ar    1  UNL1       -0.1945
     11 N         139.8930  141.2262  167.5629 N.3     1  UNL1       -0.2686
     12 C         139.4773  140.4022  166.3805 C.3     1  UNL1        0.0939
     13 C         139.5737  140.9736  164.9969 C.3     1  UNL1        0.1109
     14 N         140.0859  142.3690  164.7958 N.pl3   1  UNL1       -0.2753
     15 C         140.5016  143.1931  165.9782 C.3     1  UNL1        0.1109
     16 C         140.4052  142.6217  167.3617 C.3     1  UNL1        0.0939
     17 C         139.7966  140.6549  168.9464 C.3     1  UNL1        0.0897
     18 C         140.9439  139.8755  169.5176 C.3     1  UNL1        0.0897
     19 C         141.6608  141.9286  170.9391 C.3     1  UNL1        0.0897
     20 N         141.9415  140.5537  170.4092 N.3     1  UNL1       -0.2691
     21 C         143.2197  139.8570  170.7708 C.3     1  UNL1        0.0897
     22 C         140.6075  144.3111  156.6898 C.ar    1  UNL1        0.0015
     23 C         141.9504  144.6274  156.1009 C.ar    1  UNL1        0.0000
     24 C         142.0468  145.1987  154.7173 C.ar    1  UNL1        0.0000
     25 C         140.8004  145.4538  153.9227 C.ar    1  UNL1        0.0000
     26 C         139.4576  145.1376  154.5116 C.ar    1  UNL1        0.0000
     27 C         139.3612  144.5662  155.8952 C.ar    1  UNL1        0.0000
     28 C         140.4937  141.3388  157.0807 C.ar    1  UNL1        0.0177
     29 C         141.8112  140.9411  156.4839 C.ar    1  UNL1        0.0012
     30 C         141.8507  140.0263  155.2957 C.ar    1  UNL1       -0.0029
     31 C         140.5727  139.5093  154.7044 C.ar    1  UNL1       -0.0061
     32 C         139.2553  139.9071  155.3012 C.ar    1  UNL1       -0.0029
     33 C         139.2158  140.8219  156.4894 C.ar    1  UNL1        0.0012
     34 C         140.6122  138.5946  153.5163 C.3     1  UNL1        0.0991
     35 N         141.1174  137.1903  153.6674 N.3     1  UNL1       -0.2689
     36 C         141.4164  136.3658  152.4506 C.3     1  UNL1        0.0728
     37 C         141.9216  134.9615  152.6017 C.3     1  UNL1        0.0249
     38 C         142.1278  134.3817  153.9697 C.3     1  UNL1        0.0613
     39 C         141.8288  135.2063  155.1866 C.3     1  UNL1        0.0249
     40 C         141.3236  136.6106  155.0354 C.3     1  UNL1        0.0728
     41 C         142.6330  132.9775  154.1208 C.ar    1  UNL1        0.1396
     42 N         142.7375  131.9556  153.0278 N.ar    1  UNL1       -0.1336
     43 N         143.2915  130.6951  153.6230 N.ar    1  UNL1       -0.1293
     44 C         143.5294  130.9381  155.0840 C.ar    1  UNL1        0.1633
     45 N         143.1225  132.3486  155.3916 N.ar    1  UNL1       -0.3246
     46 H         143.1685  132.7851  156.2729 H       1  UNL1        0.1686
     47 C         144.0780  129.9448  156.0650 C.ar    1  UNL1        0.0480
     48 C         144.0247  130.2352  157.5357 C.ar    1  UNL1        0.0802
     49 C         144.5733  129.2419  158.5167 C.ar    1  UNL1        0.3019
     50 N         145.1751  127.9582  158.0272 N.ar    1  UNL1       -0.1519
     51 O         145.7237  126.9649  159.0082 O.co2   1  UNL1       -0.6187
     52 C         145.2284  127.6677  156.5564 C.ar    1  UNL1        0.3019
     53 C         144.6798  128.6610  155.5755 C.ar    1  UNL1        0.0802
@<TRIPOS>UNITY_ATOM_ATTR
50 1
charge 1
51 1
charge -1
@<TRIPOS>BOND
     1    19    20    1
     2    20    21    1
     3    20    18    1
     4    18    17    1
     5    17    11    1
     6    11    12    1
     7    12    13    1
     8    13    14    1
     9    14     1    1
    10     1     2   ar
    11     2     3   ar
    12     3     4   ar
    13     4     5   ar
    14     5     6   ar
    15     6    22    1
    16    22    23   ar
    17    23    24   ar
    18    24    25   ar
    19    25    26   ar
    20    26    27   ar
    21     6     7   ar
    22     7    28    1
    23    28    29   ar
    24    29    30   ar
    25    30    31   ar
    26    31    34    1
    27    34    35    1
    28    35    36    1
    29    36    37    1
    30    37    38    1
    31    38    41    1
    32    41    42   ar
    33    42    43   ar
    34    43    44   ar
    35    44    47    1
    36    47    48   ar
    37    48    49   ar
    38    49    50   ar
    39    50    51    1
    40    50    52   ar
    41    52    53   ar
    42    44    45   ar
    43    38    39    1
    44    39    40    1
    45    31    32   ar
    46    32    33   ar
    47     7     8   ar
    48     8     9   ar
    49     9    10   ar
    50    14    15    1
    51    15    16    1
    52    16    11    1
    53    10     1   ar
    54     9     4   ar
    55    27    22   ar
    56    33    28   ar
    57    40    35    1
    58    45    41   ar
    59    53    47   ar
    60    45    46    1
@<TRIPOS>MOLECULE
*****
 53 60 0 0 0
SMALL
GASTEIGER

@<TRIPOS>ATOM
      1 C         142.3597  141.8140  165.2567 C.ar    1  UNL1        0.2216
      2 N         142.4180  143.3127  165.2357 N.ar    1  UNL1       -0.2120
      3 C         142.2349  144.0523  163.9436 C.ar    1  UNL1        0.1048
      4 C         141.9935  143.2932  162.6726 C.ar    1  UNL1        0.0551
      5 C         141.8104  144.0329  161.3805 C.ar    1  UNL1        0.0061
      6 C         141.5691  143.2738  160.1095 C.ar    1  UNL1        0.0179
      7 C         141.5109  141.7750  160.1305 C.ar    1  UNL1        0.0829
      8 N         141.6940  141.0354  161.4226 N.ar    1  UNL1       -0.2264
      9 C         141.9353  141.7945  162.6936 C.ar    1  UNL1        0.1666
     10 N         142.1184  141.0549  163.9856 N.ar    1  UNL1       -0.1945
     11 N         142.9090  139.5950  169.1329 N.3     1  UNL1       -0.2686
     12 C         142.8570  141.0941  169.1277 C.3     1  UNL1        0.0939
     13 C         142.6739  141.8338  167.8357 C.3     1  UNL1        0.1109
     14 N         142.5428  141.0744  166.5488 N.pl3   1  UNL1       -0.2753
     15 C         142.5949  139.5753  166.5539 C.3     1  UNL1        0.1109
     16 C         142.7780  138.8356  167.8459 C.3     1  UNL1        0.0939
     17 C         143.0921  138.8553  170.4249 C.3     1  UNL1        0.0897
     18 C         143.3741  137.3821  170.4122 C.3     1  UNL1        0.0897
     19 C         145.2990  137.7304  172.1220 C.3     1  UNL1        0.0897
     20 N         144.5165  136.8302  171.2125 N.3     1  UNL1       -0.2691
     21 C         144.8763  135.3781  171.1033 C.3     1  UNL1        0.0897
     22 C         141.3860  144.0134  158.8174 C.ar    1  UNL1        0.0015
     23 C         142.5799  144.3744  157.9841 C.ar    1  UNL1        0.0000
     24 C         142.3968  145.1140  156.6921 C.ar    1  UNL1        0.0000
     25 C         141.0198  145.4926  156.2333 C.ar    1  UNL1        0.0000
     26 C         139.8259  145.1317  157.0665 C.ar    1  UNL1        0.0000
     27 C         140.0090  144.3921  158.3586 C.ar    1  UNL1        0.0000
     28 C         141.2696  141.0159  158.8595 C.ar    1  UNL1        0.0177
     29 C         142.4198  140.6780  157.9578 C.ar    1  UNL1        0.0012
     30 C         142.1784  139.9189  156.6868 C.ar    1  UNL1       -0.0029
     31 C         140.7869  139.4978  156.3174 C.ar    1  UNL1       -0.0061
     32 C         139.6368  139.8357  157.2191 C.ar    1  UNL1       -0.0029
     33 C         139.8781  140.5948  158.4901 C.ar    1  UNL1        0.0012
     34 C         140.5456  138.7387  155.0464 C.3     1  UNL1        0.0991
     35 N         141.0770  137.3443  154.8931 N.3     1  UNL1       -0.2689
     36 C         141.5008  136.8474  153.5428 C.3     1  UNL1        0.0728
     37 C         142.0323  135.4530  153.3895 C.3     1  UNL1        0.0249
     38 C         142.1398  134.5556  154.5867 C.3     1  UNL1        0.0613
     39 C         141.7160  135.0526  155.9370 C.3     1  UNL1        0.0249
     40 C         141.1846  136.4469  156.0902 C.3     1  UNL1        0.0728
     41 C         142.6712  133.1613  154.4335 C.ar    1  UNL1        0.1396
     42 N         142.7311  132.3759  153.1569 N.ar    1  UNL1       -0.1336
     43 N         143.3330  131.0368  153.4644 N.ar    1  UNL1       -0.1293
     44 C         143.6450  130.9946  154.9311 C.ar    1  UNL1        0.1633
     45 N         143.2360  132.3076  155.5299 N.ar    1  UNL1       -0.3246
     46 H         143.3230  132.5641  156.4764 H       1  UNL1        0.1686
     47 C         144.2583  129.8418  155.6692 C.ar    1  UNL1        0.0480
     48 C         144.0433  129.6975  157.1466 C.ar    1  UNL1        0.0802
     49 C         144.6566  128.5446  157.8848 C.ar    1  UNL1        0.3019
     50 N         145.4850  127.5361  157.1454 N.ar    1  UNL1       -0.1519
     51 O         146.0982  126.3833  157.8835 O.co2   1  UNL1       -0.6187
     52 C         145.7000  127.6804  155.6678 C.ar    1  UNL1        0.3019
     53 C         145.0867  128.8332  154.9298 C.ar    1  UNL1        0.0802
@<TRIPOS>UNITY_ATOM_ATTR
50 1
charge 1
51 1
charge -1
@<TRIPOS>BOND
     1    19    20    1
     2    20    21    1
     3    20    18    1
     4    18    17    1
     5    17    11    1
     6    11    12    1
     7    12    13    1
     8    13    14    1
     9    14     1    1
    10     1     2   ar
    11     2     3   ar
    12     3     4   ar
    13     4     5   ar
    14     5     6   ar
    15     6    22    1
    16    22    23   ar
    17    23    24   ar
    18    24    25   ar
    19    25    26   ar
    20    26    27   ar
    21     6     7   ar
    22     7    28    1
    23    28    29   ar
    24    29    30   ar
    25    30    31   ar
    26    31    34    1
    27    34    35    1
    28    35    36    1
    29    36    37    1
    30    37    38    1
    31    38    41    1
    32    41    42   ar
    33    42    43   ar
    34    43    44   ar
    35    44    47    1
    36    47    48   ar
    37    48    49   ar
    38    49    50   ar
    39    50    51    1
    40    50    52   ar
    41    52    53   ar
    42    44    45   ar
    43    38    39    1
    44    39    40    1
    45    31    32   ar
    46    32    33   ar
    47     7     8   ar
    48     8     9   ar
    49     9    10   ar
    50    14    15    1
    51    15    16    1
    52    16    11    1
    53    10     1   ar
    54     9     4   ar
    55    27    22   ar
    56    33    28   ar
    57    40    35    1
    58    45    41   ar
    59    53    47   ar
    60    45    46    1
