@<TRIPOS>MOLECULE
*****
 31 35 0 0 0
SMALL
GASTEIGER

@<TRIPOS>ATOM
      1 C         140.8016  137.5895  156.9295 C.3     1  UNL1        0.0521
      2 C         139.9803  138.4198  157.8708 C.ar    1  UNL1        0.0610
      3 C         140.2585  138.3796  159.3442 C.ar    1  UNL1        0.0354
      4 C         139.4371  139.2099  160.2854 C.ar    1  UNL1        0.1031
      5 N         139.7154  139.1697  161.7589 N.ar    1  UNL1       -0.2262
      6 C         138.8940  140.0000  162.7002 C.ar    1  UNL1        0.1633
      7 C         137.7944  140.8705  162.1680 C.ar    1  UNL1        0.1604
      8 N         137.5162  140.9107  160.6946 N.ar    1  UNL1       -0.2249
      9 C         138.3375  140.0804  159.7533 C.ar    1  UNL1        0.1195
     10 C         138.0593  140.1205  158.2799 C.ar    1  UNL1        0.1190
     11 N         138.8807  139.2902  157.3387 N.ar    1  UNL1       -0.2465
     12 N         139.1722  139.9599  164.1736 N.pl3   1  UNL1       -0.2908
     13 C         140.3185  140.7428  164.7420 C.3     1  UNL1        0.0960
     14 C         140.5967  140.7026  166.2155 C.3     1  UNL1        0.0650
     15 C         139.7286  139.8795  167.1204 C.3     1  UNL1        0.1694
     16 C         138.5823  139.0966  166.5520 C.3     1  UNL1        0.0650
     17 C         138.3041  139.1368  165.0786 C.3     1  UNL1        0.0960
     18 O         140.0068  139.8394  168.5938 O.3     1  UNL1       -0.4768
     19 C         140.9124  140.8617  169.2142 C.ar    1  UNL1        0.1657
     20 C         140.3735  142.2089  169.5943 C.ar    1  UNL1        0.0415
     21 C         141.2790  143.2312  170.2147 C.ar    1  UNL1        0.0329
     22 C         142.7235  142.9063  170.4551 C.ar    1  UNL1        0.1426
     23 F         143.6290  143.9285  171.0755 F       1  UNL1       -0.2041
     24 C         143.2625  141.5590  170.0751 C.ar    1  UNL1        0.0624
     25 C         142.3569  140.5367  169.4546 C.ar    1  UNL1        0.1760
     26 F         142.8959  139.1894  169.0746 F       1  UNL1       -0.2009
     27 N         136.9730  141.7008  163.1092 N.pl3   1  UNL1       -0.3175
     28 H         136.1076  141.3638  163.4357 H       1  UNL1        0.1482
     29 C         137.4703  143.0446  163.5530 C.3     1  UNL1        0.0706
     30 C         138.0491  144.3888  163.2247 C.3     1  UNL1        0.0212
     31 C         137.7527  144.0278  164.6500 C.3     1  UNL1        0.0212
@<TRIPOS>BOND
     1     1     2    1
     2     2     3   ar
     3     3     4   ar
     4     4     5   ar
     5     5     6   ar
     6     6    12    1
     7    12    13    1
     8    13    14    1
     9    14    15    1
    10    15    18    1
    11    18    19    1
    12    19    20   ar
    13    20    21   ar
    14    21    22   ar
    15    22    23    1
    16    22    24   ar
    17    24    25   ar
    18    25    26    1
    19    15    16    1
    20    16    17    1
    21     6     7   ar
    22     7    27    1
    23    27    29    1
    24    29    30    1
    25    30    31    1
    26     7     8   ar
    27     8     9   ar
    28     9    10   ar
    29    10    11   ar
    30    11     2   ar
    31     9     4   ar
    32    17    12    1
    33    31    29    1
    34    25    19   ar
    35    27    28    1
@<TRIPOS>MOLECULE
*****
 31 35 0 0 0
SMALL
GASTEIGER

@<TRIPOS>ATOM
      1 C         142.1841  143.2889  155.1273 C.3     1  UNL1        0.0521
      2 C         141.6352  143.8883  156.3880 C.ar    1  UNL1        0.0610
      3 C         142.1507  143.4333  157.7211 C.ar    1  UNL1        0.0354
      4 C         141.6019  144.0327  158.9818 C.ar    1  UNL1        0.1031
      5 N         142.1175  143.5776  160.3150 N.ar    1  UNL1       -0.2262
      6 C         141.5686  144.1770  161.5757 C.ar    1  UNL1        0.1633
      7 C         140.5042  145.2315  161.5033 C.ar    1  UNL1        0.1604
      8 N         139.9887  145.6865  160.1703 N.ar    1  UNL1       -0.2249
      9 C         140.5375  145.0871  158.9095 C.ar    1  UNL1        0.1195
     10 C         140.0220  145.5421  157.5764 C.ar    1  UNL1        0.1190
     11 N         140.5709  144.9427  156.3157 N.ar    1  UNL1       -0.2465
     12 N         142.0841  143.7220  162.9088 N.pl3   1  UNL1       -0.2908
     13 C         141.4293  142.5707  163.6130 C.3     1  UNL1        0.0960
     14 C         141.9449  142.1157  164.9461 C.3     1  UNL1        0.0650
     15 C         143.1152  142.8119  165.5750 C.3     1  UNL1        0.1694
     16 C         143.7700  143.9632  164.8709 C.3     1  UNL1        0.0650
     17 C         143.2545  144.4182  163.5378 C.3     1  UNL1        0.0960
     18 O         143.6307  142.3569  166.9081 O.3     1  UNL1       -0.4768
     19 C         142.6946  141.7359  167.9021 C.ar    1  UNL1        0.1657
     20 C         141.9512  142.6023  168.8750 C.ar    1  UNL1        0.0415
     21 C         141.0150  141.9814  169.8690 C.ar    1  UNL1        0.0329
     22 C         140.8222  140.4940  169.8900 C.ar    1  UNL1        0.1426
     23 F         139.8861  139.8730  170.8840 F       1  UNL1       -0.2041
     24 C         141.5656  139.6275  168.9171 C.ar    1  UNL1        0.0624
     25 C         142.5018  140.2485  167.9231 C.ar    1  UNL1        0.1760
     26 F         143.2452  139.3821  166.9502 F       1  UNL1       -0.2009
     27 N         139.9554  145.8309  162.7641 N.pl3   1  UNL1       -0.3175
     28 H         140.2041  146.7479  163.0221 H       1  UNL1        0.1482
     29 C         139.0276  145.0332  163.6318 C.3     1  UNL1        0.0706
     30 C         137.8520  144.1125  163.7740 C.3     1  UNL1        0.0212
     31 C         138.5962  144.5723  164.9925 C.3     1  UNL1        0.0212
@<TRIPOS>BOND
     1     1     2    1
     2     2     3   ar
     3     3     4   ar
     4     4     5   ar
     5     5     6   ar
     6     6    12    1
     7    12    13    1
     8    13    14    1
     9    14    15    1
    10    15    18    1
    11    18    19    1
    12    19    20   ar
    13    20    21   ar
    14    21    22   ar
    15    22    23    1
    16    22    24   ar
    17    24    25   ar
    18    25    26    1
    19    15    16    1
    20    16    17    1
    21     6     7   ar
    22     7    27    1
    23    27    29    1
    24    29    30    1
    25    30    31    1
    26     7     8   ar
    27     8     9   ar
    28     9    10   ar
    29    10    11   ar
    30    11     2   ar
    31     9     4   ar
    32    17    12    1
    33    31    29    1
    34    25    19   ar
    35    27    28    1
@<TRIPOS>MOLECULE
*****
 31 35 0 0 0
SMALL
GASTEIGER

@<TRIPOS>ATOM
      1 C         142.7450  138.2715  155.8991 C.3     1  UNL1        0.0521
      2 C         143.2235  139.2362  156.9434 C.ar    1  UNL1        0.0610
      3 C         142.9579  138.9636  158.3942 C.ar    1  UNL1        0.0354
      4 C         143.4364  139.9283  159.4385 C.ar    1  UNL1        0.1031
      5 N         143.1709  139.6557  160.8894 N.ar    1  UNL1       -0.2262
      6 C         143.6493  140.6204  161.9336 C.ar    1  UNL1        0.1633
      7 C         144.3934  141.8578  161.5269 C.ar    1  UNL1        0.1604
      8 N         144.6589  142.1304  160.0760 N.ar    1  UNL1       -0.2249
      9 C         144.1804  141.1657  159.0318 C.ar    1  UNL1        0.1195
     10 C         144.4460  141.4383  157.5809 C.ar    1  UNL1        0.1190
     11 N         143.9675  140.4735  156.5367 N.ar    1  UNL1       -0.2465
     12 N         143.3838  140.3478  163.3845 N.pl3   1  UNL1       -0.2908
     13 C         144.3255  139.4839  164.1699 C.3     1  UNL1        0.0960
     14 C         144.0599  139.2113  165.6209 C.3     1  UNL1        0.0650
     15 C         142.8527  139.8026  166.2864 C.3     1  UNL1        0.1694
     16 C         141.9110  140.6665  165.5010 C.3     1  UNL1        0.0650
     17 C         142.1765  140.9391  164.0501 C.3     1  UNL1        0.0960
     18 O         142.5872  139.5300  167.7373 O.3     1  UNL1       -0.4768
     19 C         141.7378  140.4748  168.5347 C.ar    1  UNL1        0.1657
     20 C         140.3690  140.0563  168.9833 C.ar    1  UNL1        0.0415
     21 C         139.5196  141.0010  169.7808 C.ar    1  UNL1        0.0329
     22 C         140.0390  142.3643  170.1296 C.ar    1  UNL1        0.1426
     23 F         139.1895  143.3091  170.9271 F       1  UNL1       -0.2041
     24 C         141.4078  142.7829  169.6810 C.ar    1  UNL1        0.0624
     25 C         142.2572  141.8381  168.8835 C.ar    1  UNL1        0.1760
     26 F         143.6260  142.2566  168.4349 F       1  UNL1       -0.2009
     27 N         144.8719  142.8225  162.5711 N.pl3   1  UNL1       -0.3175
     28 H         145.7525  142.6951  162.9924 H       1  UNL1        0.1482
     29 C         144.0086  143.9814  162.9734 C.3     1  UNL1        0.0706
     30 C         143.7566  145.1695  163.8535 C.3     1  UNL1        0.0212
     31 C         142.7655  144.8004  162.7899 C.3     1  UNL1        0.0212
@<TRIPOS>BOND
     1     1     2    1
     2     2     3   ar
     3     3     4   ar
     4     4     5   ar
     5     5     6   ar
     6     6    12    1
     7    12    13    1
     8    13    14    1
     9    14    15    1
    10    15    18    1
    11    18    19    1
    12    19    20   ar
    13    20    21   ar
    14    21    22   ar
    15    22    23    1
    16    22    24   ar
    17    24    25   ar
    18    25    26    1
    19    15    16    1
    20    16    17    1
    21     6     7   ar
    22     7    27    1
    23    27    29    1
    24    29    30    1
    25    30    31    1
    26     7     8   ar
    27     8     9   ar
    28     9    10   ar
    29    10    11   ar
    30    11     2   ar
    31     9     4   ar
    32    17    12    1
    33    31    29    1
    34    25    19   ar
    35    27    28    1
@<TRIPOS>MOLECULE
*****
 31 35 0 0 0
SMALL
GASTEIGER

@<TRIPOS>ATOM
      1 C         138.2392  143.9751  154.5679 C.3     1  UNL1        0.0521
      2 C         139.1018  144.3394  155.7398 C.ar    1  UNL1        0.0610
      3 C         138.8531  143.7102  157.0785 C.ar    1  UNL1        0.0354
      4 C         139.7157  144.0745  158.2503 C.ar    1  UNL1        0.1031
      5 N         139.4670  143.4453  159.5891 N.ar    1  UNL1       -0.2262
      6 C         140.3296  143.8096  160.7609 C.ar    1  UNL1        0.1633
      7 C         141.4410  144.8031  160.5939 C.ar    1  UNL1        0.1604
      8 N         141.6897  145.4323  159.2552 N.ar    1  UNL1       -0.2249
      9 C         140.8271  145.0680  158.0834 C.ar    1  UNL1        0.1195
     10 C         141.0758  145.6972  156.7447 C.ar    1  UNL1        0.1190
     11 N         140.2131  145.3329  155.5729 N.ar    1  UNL1       -0.2465
     12 N         140.0809  143.1804  162.0996 N.pl3   1  UNL1       -0.2908
     13 C         139.2802  143.9125  163.1353 C.3     1  UNL1        0.0960
     14 C         139.0315  143.2833  164.4741 C.3     1  UNL1        0.0650
     15 C         139.5836  141.9219  164.7771 C.3     1  UNL1        0.1694
     16 C         140.3843  141.1898  163.7414 C.3     1  UNL1        0.0650
     17 C         140.6330  141.8189  162.4027 C.3     1  UNL1        0.0960
     18 O         139.3349  141.2927  166.1158 O.3     1  UNL1       -0.4768
     19 C         140.4344  141.2380  167.1347 C.ar    1  UNL1        0.1657
     20 C         140.6408  142.3859  168.0778 C.ar    1  UNL1        0.0415
     21 C         141.7403  142.3311  169.0967 C.ar    1  UNL1        0.0329
     22 C         142.6334  141.1284  169.1724 C.ar    1  UNL1        0.1426
     23 F         143.7329  141.0736  170.1913 F       1  UNL1       -0.2041
     24 C         142.4270  139.9803  168.2293 C.ar    1  UNL1        0.0624
     25 C         141.3275  140.0351  167.2104 C.ar    1  UNL1        0.1760
     26 F         141.1210  138.8872  166.2673 F       1  UNL1       -0.2009
     27 N         142.3037  145.1674  161.7657 N.pl3   1  UNL1       -0.3175
     28 H         142.1734  146.0290  162.2239 H       1  UNL1        0.1482
     29 C         143.3647  144.2189  162.2396 C.3     1  UNL1        0.0706
     30 C         144.3122  143.0885  161.9672 C.3     1  UNL1        0.0212
     31 C         144.2549  143.7065  163.3327 C.3     1  UNL1        0.0212
@<TRIPOS>BOND
     1     1     2    1
     2     2     3   ar
     3     3     4   ar
     4     4     5   ar
     5     5     6   ar
     6     6    12    1
     7    12    13    1
     8    13    14    1
     9    14    15    1
    10    15    18    1
    11    18    19    1
    12    19    20   ar
    13    20    21   ar
    14    21    22   ar
    15    22    23    1
    16    22    24   ar
    17    24    25   ar
    18    25    26    1
    19    15    16    1
    20    16    17    1
    21     6     7   ar
    22     7    27    1
    23    27    29    1
    24    29    30    1
    25    30    31    1
    26     7     8   ar
    27     8     9   ar
    28     9    10   ar
    29    10    11   ar
    30    11     2   ar
    31     9     4   ar
    32    17    12    1
    33    31    29    1
    34    25    19   ar
    35    27    28    1
@<TRIPOS>MOLECULE
*****
 31 35 0 0 0
SMALL
GASTEIGER

@<TRIPOS>ATOM
      1 C         136.9079  137.6098  167.6304 C.3     1  UNL1        0.0521
      2 C         137.9977  138.4035  166.9728 C.ar    1  UNL1        0.0610
      3 C         138.4953  138.0113  165.6132 C.ar    1  UNL1        0.0354
      4 C         139.5851  138.8050  164.9557 C.ar    1  UNL1        0.1031
      5 N         140.0828  138.4127  163.5961 N.ar    1  UNL1       -0.2262
      6 C         141.1725  139.2064  162.9385 C.ar    1  UNL1        0.1633
      7 C         141.7646  140.3925  163.6406 C.ar    1  UNL1        0.1604
      8 N         141.2670  140.7847  165.0001 N.ar    1  UNL1       -0.2249
      9 C         140.1772  139.9910  165.6577 C.ar    1  UNL1        0.1195
     10 C         139.6795  140.3832  167.0172 C.ar    1  UNL1        0.1190
     11 N         138.5898  139.5895  167.6748 N.ar    1  UNL1       -0.2465
     12 N         141.6702  138.8142  161.5789 N.pl3   1  UNL1       -0.2908
     13 C         140.9817  139.3306  160.3504 C.3     1  UNL1        0.0960
     14 C         141.4794  138.9383  158.9908 C.3     1  UNL1        0.0650
     15 C         142.6656  138.0297  158.8598 C.3     1  UNL1        0.1694
     16 C         143.3542  137.5133  160.0883 C.3     1  UNL1        0.0650
     17 C         142.8565  137.9055  161.4479 C.3     1  UNL1        0.0960
     18 O         143.1633  137.6374  157.5002 O.3     1  UNL1       -0.4768
     19 C         142.6560  136.3854  156.8483 C.ar    1  UNL1        0.1657
     20 C         143.2595  135.0584  157.2016 C.ar    1  UNL1        0.0415
     21 C         142.7522  133.8063  156.5496 C.ar    1  UNL1        0.0329
     22 C         141.6414  133.8813  155.5444 C.ar    1  UNL1        0.1426
     23 F         141.1341  132.6293  154.8924 F       1  UNL1       -0.2041
     24 C         141.0379  135.2084  155.1910 C.ar    1  UNL1        0.0624
     25 C         141.5452  136.4604  155.8430 C.ar    1  UNL1        0.1760
     26 F         140.9417  137.7874  155.4897 F       1  UNL1       -0.2009
     27 N         142.8544  141.1862  162.9830 N.pl3   1  UNL1       -0.3175
     28 H         142.6369  141.8110  162.2539 H       1  UNL1        0.1482
     29 C         144.2755  141.0280  163.4363 C.3     1  UNL1        0.0706
     30 C         145.3453  140.2085  164.0948 C.3     1  UNL1        0.0212
     31 C         145.6670  141.5736  163.5629 C.3     1  UNL1        0.0212
@<TRIPOS>BOND
     1     1     2    1
     2     2     3   ar
     3     3     4   ar
     4     4     5   ar
     5     5     6   ar
     6     6    12    1
     7    12    13    1
     8    13    14    1
     9    14    15    1
    10    15    18    1
    11    18    19    1
    12    19    20   ar
    13    20    21   ar
    14    21    22   ar
    15    22    23    1
    16    22    24   ar
    17    24    25   ar
    18    25    26    1
    19    15    16    1
    20    16    17    1
    21     6     7   ar
    22     7    27    1
    23    27    29    1
    24    29    30    1
    25    30    31    1
    26     7     8   ar
    27     8     9   ar
    28     9    10   ar
    29    10    11   ar
    30    11     2   ar
    31     9     4   ar
    32    17    12    1
    33    31    29    1
    34    25    19   ar
    35    27    28    1
@<TRIPOS>MOLECULE
*****
 31 35 0 0 0
SMALL
GASTEIGER

@<TRIPOS>ATOM
      1 C         144.3823  142.5552  170.1072 C.3     1  UNL1        0.0521
      2 C         143.2736  141.8564  169.3776 C.ar    1  UNL1        0.0610
      3 C         142.8681  142.3185  168.0094 C.ar    1  UNL1        0.0354
      4 C         141.7593  141.6197  167.2797 C.ar    1  UNL1        0.1031
      5 N         141.3539  142.0818  165.9114 N.ar    1  UNL1       -0.2262
      6 C         140.2451  141.3830  165.1818 C.ar    1  UNL1        0.1633
      7 C         139.5419  140.2220  165.8204 C.ar    1  UNL1        0.1604
      8 N         139.9474  139.7600  167.1886 N.ar    1  UNL1       -0.2249
      9 C         141.0561  140.4588  167.9183 C.ar    1  UNL1        0.1195
     10 C         141.4616  139.9967  169.2865 C.ar    1  UNL1        0.1190
     11 N         142.5703  140.6955  170.0161 N.ar    1  UNL1       -0.2465
     12 N         139.8397  141.8450  163.8136 N.pl3   1  UNL1       -0.2908
     13 C         140.6644  141.4666  162.6191 C.3     1  UNL1        0.0960
     14 C         140.2588  141.9287  161.2509 C.3     1  UNL1        0.0650
     15 C         139.0286  142.7692  161.0771 C.3     1  UNL1        0.1694
     16 C         138.2039  143.1476  162.2715 C.3     1  UNL1        0.0650
     17 C         138.6094  142.6855  163.6397 C.3     1  UNL1        0.0960
     18 O         138.6231  143.2313  159.7089 O.3     1  UNL1       -0.4768
     19 C         139.6534  143.7791  158.7663 C.ar    1  UNL1        0.1657
     20 C         139.9839  143.0393  157.5040 C.ar    1  UNL1        0.0415
     21 C         141.0142  143.5872  156.5615 C.ar    1  UNL1        0.0329
     22 C         141.7139  144.8749  156.8812 C.ar    1  UNL1        0.1426
     23 F         142.7442  145.4227  155.9387 F       1  UNL1       -0.2041
     24 C         141.3834  145.6147  158.1436 C.ar    1  UNL1        0.0624
     25 C         140.3532  145.0669  159.0861 C.ar    1  UNL1        0.1760
     26 F         140.0226  145.8066  160.3484 F       1  UNL1       -0.2009
     27 N         138.4332  139.5232  165.0907 N.pl3   1  UNL1       -0.3175
     28 H         137.4977  139.6693  165.3604 H       1  UNL1        0.1482
     29 C         138.7498  138.6019  163.9502 C.3     1  UNL1        0.0706
     30 C         138.4044  138.0317  162.6066 C.3     1  UNL1        0.0212
     31 C         139.6436  137.5762  163.3185 C.3     1  UNL1        0.0212
@<TRIPOS>BOND
     1     1     2    1
     2     2     3   ar
     3     3     4   ar
     4     4     5   ar
     5     5     6   ar
     6     6    12    1
     7    12    13    1
     8    13    14    1
     9    14    15    1
    10    15    18    1
    11    18    19    1
    12    19    20   ar
    13    20    21   ar
    14    21    22   ar
    15    22    23    1
    16    22    24   ar
    17    24    25   ar
    18    25    26    1
    19    15    16    1
    20    16    17    1
    21     6     7   ar
    22     7    27    1
    23    27    29    1
    24    29    30    1
    25    30    31    1
    26     7     8   ar
    27     8     9   ar
    28     9    10   ar
    29    10    11   ar
    30    11     2   ar
    31     9     4   ar
    32    17    12    1
    33    31    29    1
    34    25    19   ar
    35    27    28    1
@<TRIPOS>MOLECULE
*****
 31 35 0 0 0
SMALL
GASTEIGER

@<TRIPOS>ATOM
      1 C         143.0015  138.1161  170.3013 C.3     1  UNL1        0.0521
      2 C         142.2754  139.2342  169.6137 C.ar    1  UNL1        0.0610
      3 C         142.6480  139.6210  168.2132 C.ar    1  UNL1        0.0354
      4 C         141.9218  140.7390  167.5256 C.ar    1  UNL1        0.1031
      5 N         142.2945  141.1259  166.1250 N.ar    1  UNL1       -0.2262
      6 C         141.5684  142.2439  165.4374 C.ar    1  UNL1        0.1633
      7 C         140.4696  142.9751  166.1503 C.ar    1  UNL1        0.1604
      8 N         140.0971  142.5882  167.5509 N.ar    1  UNL1       -0.2249
      9 C         140.8232  141.4702  168.2385 C.ar    1  UNL1        0.1195
     10 C         140.4506  141.0833  169.6390 C.ar    1  UNL1        0.1190
     11 N         141.1767  139.9653  170.3266 N.ar    1  UNL1       -0.2465
     12 N         141.9409  142.6308  164.0368 N.pl3   1  UNL1       -0.2908
     13 C         141.3966  141.8546  162.8744 C.3     1  UNL1        0.0960
     14 C         141.7692  142.2415  161.4738 C.3     1  UNL1        0.0650
     15 C         142.6861  143.4045  161.2357 C.3     1  UNL1        0.1694
     16 C         143.2304  144.1807  162.3982 C.3     1  UNL1        0.0650
     17 C         142.8579  143.7938  163.7987 C.3     1  UNL1        0.0960
     18 O         143.0586  143.7914  159.8352 O.3     1  UNL1       -0.4768
     19 C         141.9872  144.1099  158.8349 C.ar    1  UNL1        0.1657
     20 C         141.4669  145.5115  158.7138 C.ar    1  UNL1        0.0415
     21 C         140.3955  145.8299  157.7135 C.ar    1  UNL1        0.0329
     22 C         139.8444  144.7468  156.8343 C.ar    1  UNL1        0.1426
     23 F         138.7730  145.0653  155.8339 F       1  UNL1       -0.2041
     24 C         140.3647  143.3451  156.9554 C.ar    1  UNL1        0.0624
     25 C         141.4361  143.0266  157.9557 C.ar    1  UNL1        0.1760
     26 F         141.9564  141.6250  158.0768 F       1  UNL1       -0.2009
     27 N         139.7435  144.0931  165.4627 N.pl3   1  UNL1       -0.3175
     28 H         139.9757  145.0283  165.6645 H       1  UNL1        0.1482
     29 C         138.6638  143.7862  164.4678 C.3     1  UNL1        0.0706
     30 C         137.6929  142.8164  163.8622 C.3     1  UNL1        0.0212
     31 C         137.7645  144.2245  163.3501 C.3     1  UNL1        0.0212
@<TRIPOS>BOND
     1     1     2    1
     2     2     3   ar
     3     3     4   ar
     4     4     5   ar
     5     5     6   ar
     6     6    12    1
     7    12    13    1
     8    13    14    1
     9    14    15    1
    10    15    18    1
    11    18    19    1
    12    19    20   ar
    13    20    21   ar
    14    21    22   ar
    15    22    23    1
    16    22    24   ar
    17    24    25   ar
    18    25    26    1
    19    15    16    1
    20    16    17    1
    21     6     7   ar
    22     7    27    1
    23    27    29    1
    24    29    30    1
    25    30    31    1
    26     7     8   ar
    27     8     9   ar
    28     9    10   ar
    29    10    11   ar
    30    11     2   ar
    31     9     4   ar
    32    17    12    1
    33    31    29    1
    34    25    19   ar
    35    27    28    1
@<TRIPOS>MOLECULE
*****
 31 35 0 0 0
SMALL
GASTEIGER

@<TRIPOS>ATOM
      1 C         139.8526  140.3528  169.9098 C.3     1  UNL1        0.0521
      2 C         139.4271  140.2165  168.4779 C.ar    1  UNL1        0.0610
      3 C         139.9817  141.1454  167.4390 C.ar    1  UNL1        0.0354
      4 C         139.5561  141.0091  166.0071 C.ar    1  UNL1        0.1031
      5 N         140.1108  141.9382  164.9682 N.ar    1  UNL1       -0.2262
      6 C         139.6853  141.8019  163.5363 C.ar    1  UNL1        0.1633
      7 C         138.7051  140.7365  163.1433 C.ar    1  UNL1        0.1604
      8 N         138.1505  139.8075  164.1822 N.ar    1  UNL1       -0.2249
      9 C         138.5760  139.9438  165.6141 C.ar    1  UNL1        0.1195
     10 C         138.0214  139.0149  166.6530 C.ar    1  UNL1        0.1190
     11 N         138.4470  139.1512  168.0849 N.ar    1  UNL1       -0.2465
     12 N         140.2399  142.7309  162.4974 N.pl3   1  UNL1       -0.2908
     13 C         139.4746  143.9598  162.1049 C.3     1  UNL1        0.0960
     14 C         140.0293  144.8888  161.0659 C.3     1  UNL1        0.0650
     15 C         141.3491  144.5888  160.4195 C.3     1  UNL1        0.1694
     16 C         142.1144  143.3599  160.8120 C.3     1  UNL1        0.0650
     17 C         141.5598  142.4309  161.8509 C.3     1  UNL1        0.0960
     18 O         141.9037  145.5178  159.3806 O.3     1  UNL1       -0.4768
     19 C         141.4511  145.4048  157.9550 C.ar    1  UNL1        0.1657
     20 C         140.2825  146.2123  157.4729 C.ar    1  UNL1        0.0415
     21 C         139.8299  146.0992  156.0473 C.ar    1  UNL1        0.0329
     22 C         140.5457  145.1787  155.1038 C.ar    1  UNL1        0.1426
     23 F         140.0930  145.0657  153.6782 F       1  UNL1       -0.2041
     24 C         141.7143  144.3712  155.5859 C.ar    1  UNL1        0.0624
     25 C         142.1670  144.4842  157.0115 C.ar    1  UNL1        0.1760
     26 F         143.3355  143.6767  157.4936 F       1  UNL1       -0.2009
     27 N         138.2796  140.6002  161.7114 N.pl3   1  UNL1       -0.3175
     28 H         137.4757  141.0689  161.3900 H       1  UNL1        0.1482
     29 C         139.0789  139.7498  160.7691 C.3     1  UNL1        0.0706
     30 C         140.0909  139.6292  159.6685 C.3     1  UNL1        0.0212
     31 C         139.4514  138.3975  160.2377 C.3     1  UNL1        0.0212
@<TRIPOS>BOND
     1     1     2    1
     2     2     3   ar
     3     3     4   ar
     4     4     5   ar
     5     5     6   ar
     6     6    12    1
     7    12    13    1
     8    13    14    1
     9    14    15    1
    10    15    18    1
    11    18    19    1
    12    19    20   ar
    13    20    21   ar
    14    21    22   ar
    15    22    23    1
    16    22    24   ar
    17    24    25   ar
    18    25    26    1
    19    15    16    1
    20    16    17    1
    21     6     7   ar
    22     7    27    1
    23    27    29    1
    24    29    30    1
    25    30    31    1
    26     7     8   ar
    27     8     9   ar
    28     9    10   ar
    29    10    11   ar
    30    11     2   ar
    31     9     4   ar
    32    17    12    1
    33    31    29    1
    34    25    19   ar
    35    27    28    1
@<TRIPOS>MOLECULE
*****
 31 35 0 0 0
SMALL
GASTEIGER

@<TRIPOS>ATOM
      1 C         139.5135  139.8713  170.8137 C.3     1  UNL1        0.0521
      2 C         140.4987  140.4721  169.8553 C.ar    1  UNL1        0.0610
      3 C         140.0216  141.0649  168.5627 C.ar    1  UNL1        0.0354
      4 C         141.0068  141.6657  167.6043 C.ar    1  UNL1        0.1031
      5 N         140.5296  142.2585  166.3116 N.ar    1  UNL1       -0.2262
      6 C         141.5148  142.8594  165.3533 C.ar    1  UNL1        0.1633
      7 C         142.9771  142.8674  165.6876 C.ar    1  UNL1        0.1604
      8 N         143.4541  142.2747  166.9803 N.ar    1  UNL1       -0.2249
      9 C         142.4690  141.6738  167.9386 C.ar    1  UNL1        0.1195
     10 C         142.9460  141.0810  169.2313 C.ar    1  UNL1        0.1190
     11 N         141.9609  140.4802  170.1896 N.ar    1  UNL1       -0.2465
     12 N         141.0377  143.4521  164.0606 N.pl3   1  UNL1       -0.2908
     13 C         141.0670  142.6334  162.8041 C.3     1  UNL1        0.0960
     14 C         140.5899  143.2263  161.5114 C.3     1  UNL1        0.0650
     15 C         140.0836  144.6377  161.4753 C.3     1  UNL1        0.1694
     16 C         140.0544  145.4565  162.7318 C.3     1  UNL1        0.0650
     17 C         140.5314  144.8637  164.0244 C.3     1  UNL1        0.0960
     18 O         139.6066  145.2305  160.1826 O.3     1  UNL1       -0.4768
     19 C         140.2461  144.8217  158.8888 C.ar    1  UNL1        0.1657
     20 C         141.4808  145.5243  158.4076 C.ar    1  UNL1        0.0415
     21 C         142.1204  145.1155  157.1138 C.ar    1  UNL1        0.0329
     22 C         141.5251  144.0041  156.3012 C.ar    1  UNL1        0.1426
     23 F         142.1647  143.5953  155.0075 F       1  UNL1       -0.2041
     24 C         140.2903  143.3014  156.7824 C.ar    1  UNL1        0.0624
     25 C         139.6508  143.7102  158.0762 C.ar    1  UNL1        0.1760
     26 F         138.4160  143.0076  158.5574 F       1  UNL1       -0.2009
     27 N         143.9623  143.4683  164.7293 N.pl3   1  UNL1       -0.3175
     28 H         144.0962  144.4434  164.7078 H       1  UNL1        0.1482
     29 C         144.7434  142.5835  163.8036 C.3     1  UNL1        0.0706
     30 C         144.9162  141.9395  162.4600 C.3     1  UNL1        0.0212
     31 C         145.9237  141.6949  163.5440 C.3     1  UNL1        0.0212
@<TRIPOS>BOND
     1     1     2    1
     2     2     3   ar
     3     3     4   ar
     4     4     5   ar
     5     5     6   ar
     6     6    12    1
     7    12    13    1
     8    13    14    1
     9    14    15    1
    10    15    18    1
    11    18    19    1
    12    19    20   ar
    13    20    21   ar
    14    21    22   ar
    15    22    23    1
    16    22    24   ar
    17    24    25   ar
    18    25    26    1
    19    15    16    1
    20    16    17    1
    21     6     7   ar
    22     7    27    1
    23    27    29    1
    24    29    30    1
    25    30    31    1
    26     7     8   ar
    27     8     9   ar
    28     9    10   ar
    29    10    11   ar
    30    11     2   ar
    31     9     4   ar
    32    17    12    1
    33    31    29    1
    34    25    19   ar
    35    27    28    1
