@<TRIPOS>MOLECULE
*****
 62 69 0 0 0
SMALL
GASTEIGER

@<TRIPOS>ATOM
      1 C         139.2945  139.2270  165.5157 C.ar    1  UNL1        0.2284
      2 N         138.0878  138.3360  165.5201 N.ar    1  UNL1       -0.1893
      3 C         137.3460  138.0844  166.7993 C.ar    1  UNL1        0.2020
      4 N         137.8109  138.7238  168.0741 N.ar    1  UNL1       -0.2171
      5 C         139.0176  139.6147  168.0697 C.ar    1  UNL1        0.1169
      6 S         139.7062  140.3773  169.1625 S.2     1  UNL1       -0.0678
      7 C         140.8736  141.1002  168.5587 C.ar    1  UNL1        0.0310
      8 C         140.9065  140.7845  167.0927 C.ar    1  UNL1        0.0122
      9 C         139.7594  139.8664  166.7905 C.ar    1  UNL1        0.0775
     10 C         141.9102  141.2968  166.1028 C.ar    1  UNL1       -0.0023
     11 C         141.7514  142.6675  165.5147 C.ar    1  UNL1        0.0029
     12 C         142.7550  143.1800  164.5248 C.ar    1  UNL1        0.0378
     13 C         143.9176  142.3215  164.1228 C.ar    1  UNL1        0.1487
     14 C         144.0764  140.9508  164.7108 C.ar    1  UNL1        0.0876
     15 CL        145.2390  140.0923  164.3089 Cl      1  UNL1       -0.0794
     16 C         143.0728  140.4384  165.7008 C.ar    1  UNL1       -0.0083
     17 C         143.2316  139.0676  166.2888 C.3     1  UNL1        0.0320
     18 O         144.9213  142.8339  163.1329 O.3     1  UNL1       -0.4731
     19 C         144.9172  142.3168  161.7248 C.3     1  UNL1        0.2227
     20 C         143.6182  142.1286  160.9987 C.3     1  UNL1        0.1201
     21 N         143.4175  140.9303  160.1190 N.3     1  UNL1       -0.2672
     22 C         143.0363  139.6115  160.7235 C.3     1  UNL1        0.0898
     23 C         142.8356  138.4132  159.8438 C.3     1  UNL1        0.0897
     24 N         143.0161  138.5337  158.3596 N.3     1  UNL1       -0.2691
     25 C         142.8154  137.3354  157.4799 C.3     1  UNL1        0.0897
     26 C         143.3974  139.8525  157.7552 C.3     1  UNL1        0.0897
     27 C         143.5981  141.0508  158.6348 C.3     1  UNL1        0.0898
     28 C         141.8387  141.9838  169.2922 C.ar    1  UNL1        0.0062
     29 C         141.3395  143.1926  170.0267 C.ar    1  UNL1        0.0028
     30 C         142.3046  144.0761  170.7602 C.ar    1  UNL1        0.0297
     31 C         143.7689  143.7508  170.7592 C.ar    1  UNL1        0.1401
     32 F         144.7340  144.6344  171.4927 F       1  UNL1       -0.2042
     33 C         144.2681  142.5420  170.0247 C.ar    1  UNL1        0.0297
     34 C         143.3030  141.6585  169.2912 C.ar    1  UNL1        0.0028
     35 O         140.0363  139.4787  164.2365 O.3     1  UNL1       -0.4578
     36 C         139.3190  139.3844  162.9225 C.3     1  UNL1        0.2079
     37 C         139.5544  138.2080  162.0221 C.2     1  UNL1        0.0904
     38 O         138.6828  137.9975  160.8197 O.co2   1  UNL1       -0.5455
     39 O         140.6615  137.2420  162.3244 O.co2   1  UNL1       -0.5455
     40 C         138.3663  140.4666  162.5088 C.3     1  UNL1        0.0789
     41 C         139.3678  142.8446  162.2052 C.ar    1  UNL1        0.1352
     42 C         139.5620  144.2458  162.7041 C.ar    1  UNL1        0.0366
     43 C         138.9487  144.6702  164.0056 C.ar    1  UNL1        0.0031
     44 C         138.1414  143.6935  164.8081 C.ar    1  UNL1       -0.0001
     45 C         137.9472  142.2923  164.3092 C.ar    1  UNL1       -0.0011
     46 C         138.5604  141.8678  163.0077 C.ar    1  UNL1        0.0158
     47 O         139.9811  142.4201  160.9037 O.3     1  UNL1       -0.4693
     48 C         139.3114  142.7729  159.6088 C.3     1  UNL1        0.2509
     49 C         137.5108  140.8146  156.6638 C.ar    1  UNL1        0.1649
     50 N         138.3042  139.5418  156.6431 N.ar    1  UNL1       -0.2249
     51 C         139.4332  139.3460  157.6110 C.ar    1  UNL1        0.1019
     52 C         139.7690  140.4230  158.5995 C.ar    1  UNL1        0.0391
     53 C         138.9756  141.6958  158.6202 C.ar    1  UNL1        0.1058
     54 N         137.8465  141.8916  157.6523 N.ar    1  UNL1       -0.2271
     55 C         134.9950  140.5715  156.0624 C.ar    1  UNL1        0.1416
     56 C         133.8659  140.7673  155.0945 C.ar    1  UNL1        0.0370
     57 C         134.1235  141.4020  153.7601 C.ar    1  UNL1        0.0031
     58 C         135.5102  141.8408  153.3935 C.ar    1  UNL1        0.0003
     59 C         136.6393  141.6450  154.3614 C.ar    1  UNL1        0.0061
     60 C         136.3817  141.0104  155.6959 C.ar    1  UNL1        0.0697
     61 C         133.3981  139.3295  157.6925 C.3     1  UNL1        0.2525
     62 O         134.7373  139.9368  157.3969 O.3     1  UNL1       -0.4713
@<TRIPOS>UNITY_ATOM_ATTR
38 1
charge -1
@<TRIPOS>BOND
     1    61    62    1
     2    62    55    1
     3    55    56   ar
     4    56    57   ar
     5    57    58   ar
     6    58    59   ar
     7    59    60   ar
     8    60    49    1
     9    49    50   ar
    10    50    51   ar
    11    51    52   ar
    12    52    53   ar
    13    53    48    1
    14    48    47    1
    15    47    41    1
    16    41    42   ar
    17    42    43   ar
    18    43    44   ar
    19    44    45   ar
    20    45    46   ar
    21    46    40    1
    22    36    40    1
    23    36    35    1
    24    35     1    1
    25     1     2   ar
    26     2     3   ar
    27     3     4   ar
    28     4     5   ar
    29     5     6   ar
    30     6     7   ar
    31     7    28    1
    32    28    29   ar
    33    29    30   ar
    34    30    31   ar
    35    31    32    1
    36    31    33   ar
    37    33    34   ar
    38     7     8   ar
    39     8    10    1
    40    10    11   ar
    41    11    12   ar
    42    12    13   ar
    43    13    18    1
    44    18    19    1
    45    19    20    1
    46    20    21    1
    47    21    22    1
    48    22    23    1
    49    23    24    1
    50    24    25    1
    51    24    26    1
    52    26    27    1
    53    13    14   ar
    54    14    15    1
    55    14    16   ar
    56    16    17    1
    57     8     9   ar
    58    36    37    1
    59    37    38   ar
    60    37    39   ar
    61    53    54   ar
    62    60    55   ar
    63    54    49   ar
    64    46    41   ar
    65     9     1   ar
    66     9     5   ar
    67    34    28   ar
    68    16    10   ar
    69    27    21    1
@<TRIPOS>MOLECULE
*****
 62 69 0 0 0
SMALL
GASTEIGER

@<TRIPOS>ATOM
      1 C         138.9397  138.9149  165.9304 C.ar    1  UNL1        0.2284
      2 N         137.6993  138.0772  166.0279 N.ar    1  UNL1       -0.1893
      3 C         136.9784  137.9544  167.3375 C.ar    1  UNL1        0.2020
      4 N         137.4979  138.6693  168.5496 N.ar    1  UNL1       -0.2171
      5 C         138.7383  139.5070  168.4520 C.ar    1  UNL1        0.1169
      6 S         139.4818  140.3216  169.4686 S.2     1  UNL1       -0.0678
      7 C         140.6624  140.9479  168.7873 C.ar    1  UNL1        0.0310
      8 C         140.6484  140.5204  167.3496 C.ar    1  UNL1        0.0122
      9 C         139.4592  139.6298  167.1424 C.ar    1  UNL1        0.0775
     10 C         141.6480  140.9142  166.3029 C.ar    1  UNL1       -0.0023
     11 C         141.4812  142.2029  165.5537 C.ar    1  UNL1        0.0029
     12 C         142.4808  142.5968  164.5070 C.ar    1  UNL1        0.0378
     13 C         143.6472  141.7018  164.2094 C.ar    1  UNL1        0.1487
     14 C         143.8140  140.4131  164.9586 C.ar    1  UNL1        0.0876
     15 CL        144.9805  139.5181  164.6611 Cl      1  UNL1       -0.0794
     16 C         142.8145  140.0192  166.0053 C.ar    1  UNL1       -0.0083
     17 C         142.9813  138.7305  166.7545 C.3     1  UNL1        0.0320
     18 O         144.6469  142.0956  163.1627 O.3     1  UNL1       -0.4731
     19 C         144.3281  143.2000  162.1991 C.3     1  UNL1        0.2227
     20 C         144.1496  142.8952  160.7413 C.3     1  UNL1        0.1201
     21 N         143.1172  143.6333  159.9416 N.3     1  UNL1       -0.2672
     22 C         143.1365  143.5614  158.4435 C.3     1  UNL1        0.0898
     23 C         142.1042  144.2996  157.6438 C.3     1  UNL1        0.0897
     24 N         141.0525  145.1096  158.3423 N.3     1  UNL1       -0.2691
     25 C         140.0202  145.8477  157.5427 C.3     1  UNL1        0.0897
     26 C         141.0333  145.1815  159.8404 C.3     1  UNL1        0.0897
     27 C         142.0656  144.4433  160.6401 C.3     1  UNL1        0.0898
     28 C         141.6785  141.8444  169.4308 C.ar    1  UNL1        0.0062
     29 C         143.1275  141.4570  169.4306 C.ar    1  UNL1        0.0028
     30 C         144.1436  142.3534  170.0741 C.ar    1  UNL1        0.0297
     31 C         143.7105  143.6372  170.7177 C.ar    1  UNL1        0.1401
     32 F         144.7266  144.5337  171.3611 F       1  UNL1       -0.2042
     33 C         142.2614  144.0246  170.7178 C.ar    1  UNL1        0.0297
     34 C         141.2454  143.1282  170.0743 C.ar    1  UNL1        0.0028
     35 O         139.6607  139.0377  164.6207 O.3     1  UNL1       -0.4578
     36 C         138.8849  139.0667  163.3373 C.3     1  UNL1        0.2079
     37 C         139.2588  138.1457  162.2138 C.2     1  UNL1        0.0904
     38 O         140.4555  137.2508  162.3444 O.co2   1  UNL1       -0.5455
     39 O         138.4361  138.1198  160.9598 O.co2   1  UNL1       -0.5455
     40 C         137.7350  140.0166  163.1772 C.3     1  UNL1        0.0789
     41 C         138.3261  142.2652  162.0176 C.ar    1  UNL1        0.1352
     42 C         138.5592  143.7449  162.0953 C.ar    1  UNL1        0.0366
     43 C         138.4346  144.4558  163.4103 C.ar    1  UNL1        0.0031
     44 C         138.0768  143.6869  164.6476 C.ar    1  UNL1       -0.0001
     45 C         137.8436  142.2072  164.5699 C.ar    1  UNL1       -0.0011
     46 C         137.9682  141.4963  163.2549 C.ar    1  UNL1        0.0158
     47 O         138.4507  141.5543  160.7027 O.3     1  UNL1       -0.4693
     48 C         139.6742  141.7501  159.8573 C.3     1  UNL1        0.2509
     49 C         142.4275  139.0598  158.8921 C.ar    1  UNL1        0.1649
     50 N         143.1312  138.8904  160.2059 N.ar    1  UNL1       -0.2249
     51 C         142.6825  139.6742  161.4036 C.ar    1  UNL1        0.1019
     52 C         141.5302  140.6274  161.2874 C.ar    1  UNL1        0.0391
     53 C         140.8266  140.7968  159.9736 C.ar    1  UNL1        0.1058
     54 N         141.2752  140.0130  158.7759 N.ar    1  UNL1       -0.2271
     55 C         143.6008  138.9645  156.5760 C.ar    1  UNL1        0.1416
     56 C         144.0495  138.1807  155.3783 C.ar    1  UNL1        0.0370
     57 C         143.7736  136.7084  155.2992 C.ar    1  UNL1        0.0031
     58 C         143.0491  136.0200  156.4177 C.ar    1  UNL1        0.0003
     59 C         142.6004  136.8038  157.6153 C.ar    1  UNL1        0.0061
     60 C         142.8762  138.2760  157.6945 C.ar    1  UNL1        0.0697
     61 C         145.2606  140.9554  156.3988 C.3     1  UNL1        0.2525
     62 O         143.8766  140.4368  156.6551 O.3     1  UNL1       -0.4713
@<TRIPOS>UNITY_ATOM_ATTR
38 1
charge -1
@<TRIPOS>BOND
     1    61    62    1
     2    62    55    1
     3    55    56   ar
     4    56    57   ar
     5    57    58   ar
     6    58    59   ar
     7    59    60   ar
     8    60    49    1
     9    49    50   ar
    10    50    51   ar
    11    51    52   ar
    12    52    53   ar
    13    53    48    1
    14    48    47    1
    15    47    41    1
    16    41    42   ar
    17    42    43   ar
    18    43    44   ar
    19    44    45   ar
    20    45    46   ar
    21    46    40    1
    22    36    40    1
    23    36    35    1
    24    35     1    1
    25     1     2   ar
    26     2     3   ar
    27     3     4   ar
    28     4     5   ar
    29     5     6   ar
    30     6     7   ar
    31     7    28    1
    32    28    29   ar
    33    29    30   ar
    34    30    31   ar
    35    31    32    1
    36    31    33   ar
    37    33    34   ar
    38     7     8   ar
    39     8    10    1
    40    10    11   ar
    41    11    12   ar
    42    12    13   ar
    43    13    18    1
    44    18    19    1
    45    19    20    1
    46    20    21    1
    47    21    22    1
    48    22    23    1
    49    23    24    1
    50    24    25    1
    51    24    26    1
    52    26    27    1
    53    13    14   ar
    54    14    15    1
    55    14    16   ar
    56    16    17    1
    57     8     9   ar
    58    36    37    1
    59    37    38   ar
    60    37    39   ar
    61    53    54   ar
    62    60    55   ar
    63    54    49   ar
    64    46    41   ar
    65     9     1   ar
    66     9     5   ar
    67    34    28   ar
    68    16    10   ar
    69    27    21    1
@<TRIPOS>MOLECULE
*****
 62 69 0 0 0
SMALL
GASTEIGER

@<TRIPOS>ATOM
      1 C         139.3839  138.9664  165.5738 C.ar    1  UNL1        0.2284
      2 N         138.1403  138.1277  165.5675 N.ar    1  UNL1       -0.1893
      3 C         137.3164  137.9988  166.8143 C.ar    1  UNL1        0.2020
      4 N         137.7361  138.7085  168.0673 N.ar    1  UNL1       -0.2171
      5 C         138.9796  139.5472  168.0736 C.ar    1  UNL1        0.1169
      6 S         139.6384  140.3576  169.1503 S.2     1  UNL1       -0.0678
      7 C         140.8694  140.9874  168.5690 C.ar    1  UNL1        0.0310
      8 C         140.9715  140.5662  167.1330 C.ar    1  UNL1        0.0122
      9 C         139.8036  139.6761  166.8268 C.ar    1  UNL1        0.0775
     10 C         142.0519  140.9651  166.1719 C.ar    1  UNL1       -0.0023
     11 C         142.0763  142.3537  165.6051 C.ar    1  UNL1        0.0029
     12 C         143.1566  142.7526  164.6440 C.ar    1  UNL1        0.0378
     13 C         144.2125  141.7629  164.2497 C.ar    1  UNL1        0.1487
     14 C         144.1881  140.3743  164.8164 C.ar    1  UNL1        0.0876
     15 CL        145.2440  139.3846  164.4220 Cl      1  UNL1       -0.0794
     16 C         143.1078  139.9753  165.7775 C.ar    1  UNL1       -0.0083
     17 C         143.0834  138.5868  166.3442 C.3     1  UNL1        0.0320
     18 O         145.2929  142.1617  163.2885 O.3     1  UNL1       -0.4731
     19 C         144.9800  142.3134  161.8294 C.3     1  UNL1        0.2227
     20 C         143.9544  141.4277  161.1862 C.3     1  UNL1        0.1201
     21 N         143.6517  141.5700  159.7240 N.3     1  UNL1       -0.2672
     22 C         143.9418  142.8625  159.0202 C.3     1  UNL1        0.0898
     23 C         143.6390  143.0048  157.5580 C.3     1  UNL1        0.0897
     24 N         143.0461  141.8545  156.7995 N.3     1  UNL1       -0.2691
     25 C         142.7434  141.9968  155.3373 C.3     1  UNL1        0.0897
     26 C         142.7560  140.5621  157.5032 C.3     1  UNL1        0.0897
     27 C         143.0588  140.4198  158.9654 C.3     1  UNL1        0.0898
     28 C         141.8297  141.8814  169.2961 C.ar    1  UNL1        0.0062
     29 C         143.2942  141.5570  169.3080 C.ar    1  UNL1        0.0028
     30 C         144.2544  142.4510  170.0351 C.ar    1  UNL1        0.0297
     31 C         143.7502  143.6693  170.7503 C.ar    1  UNL1        0.1401
     32 F         144.7105  144.5633  171.4774 F       1  UNL1       -0.2042
     33 C         142.2857  143.9936  170.7384 C.ar    1  UNL1        0.0297
     34 C         141.3255  143.0997  170.0113 C.ar    1  UNL1        0.0028
     35 O         140.2079  139.0953  164.3269 O.3     1  UNL1       -0.4578
     36 C         139.6053  139.6879  163.0877 C.3     1  UNL1        0.2079
     37 C         138.5341  138.9449  162.3455 C.2     1  UNL1        0.0904
     38 O         138.4167  137.4564  162.4891 O.co2   1  UNL1       -0.5455
     39 O         137.5804  139.6904  161.4598 O.co2   1  UNL1       -0.5455
     40 C         140.0737  141.0233  162.5905 C.3     1  UNL1        0.0789
     41 C         140.1544  143.6079  162.8426 C.ar    1  UNL1        0.1352
     42 C         139.6578  144.8659  163.4911 C.ar    1  UNL1        0.0366
     43 C         138.5838  144.7975  164.5361 C.ar    1  UNL1        0.0031
     44 C         138.0065  143.4710  164.9325 C.ar    1  UNL1       -0.0001
     45 C         138.5032  142.2130  164.2840 C.ar    1  UNL1       -0.0011
     46 C         139.5771  142.2813  163.2391 C.ar    1  UNL1        0.0158
     47 O         141.2283  143.6762  161.7976 O.3     1  UNL1       -0.4693
     48 C         141.2131  144.7758  160.7775 C.3     1  UNL1        0.2509
     49 C         139.9690  145.3981  157.0606 C.ar    1  UNL1        0.1649
     50 N         139.5087  144.0217  156.6816 N.ar    1  UNL1       -0.2249
     51 C         139.6165  142.8967  157.6678 C.ar    1  UNL1        0.1019
     52 C         140.1847  143.1480  159.0331 C.ar    1  UNL1        0.0391
     53 C         140.6450  144.5244  159.4121 C.ar    1  UNL1        0.1058
     54 N         140.5372  145.6494  158.4259 N.ar    1  UNL1       -0.2271
     55 C         140.6167  146.4608  154.7800 C.ar    1  UNL1        0.1416
     56 C         140.5089  147.5859  153.7938 C.ar    1  UNL1        0.0370
     57 C         139.6456  148.7732  154.1018 C.ar    1  UNL1        0.0031
     58 C         138.8901  148.8354  155.3962 C.ar    1  UNL1        0.0003
     59 C         138.9979  147.7104  156.3824 C.ar    1  UNL1        0.0061
     60 C         139.8612  146.5231  156.0743 C.ar    1  UNL1        0.0697
     61 C         142.5562  145.3783  153.4322 C.3     1  UNL1        0.2525
     62 O         141.4801  145.2735  154.4719 O.3     1  UNL1       -0.4713
@<TRIPOS>UNITY_ATOM_ATTR
38 1
charge -1
@<TRIPOS>BOND
     1    61    62    1
     2    62    55    1
     3    55    56   ar
     4    56    57   ar
     5    57    58   ar
     6    58    59   ar
     7    59    60   ar
     8    60    49    1
     9    49    50   ar
    10    50    51   ar
    11    51    52   ar
    12    52    53   ar
    13    53    48    1
    14    48    47    1
    15    47    41    1
    16    41    42   ar
    17    42    43   ar
    18    43    44   ar
    19    44    45   ar
    20    45    46   ar
    21    46    40    1
    22    36    40    1
    23    36    35    1
    24    35     1    1
    25     1     2   ar
    26     2     3   ar
    27     3     4   ar
    28     4     5   ar
    29     5     6   ar
    30     6     7   ar
    31     7    28    1
    32    28    29   ar
    33    29    30   ar
    34    30    31   ar
    35    31    32    1
    36    31    33   ar
    37    33    34   ar
    38     7     8   ar
    39     8    10    1
    40    10    11   ar
    41    11    12   ar
    42    12    13   ar
    43    13    18    1
    44    18    19    1
    45    19    20    1
    46    20    21    1
    47    21    22    1
    48    22    23    1
    49    23    24    1
    50    24    25    1
    51    24    26    1
    52    26    27    1
    53    13    14   ar
    54    14    15    1
    55    14    16   ar
    56    16    17    1
    57     8     9   ar
    58    36    37    1
    59    37    38   ar
    60    37    39   ar
    61    53    54   ar
    62    60    55   ar
    63    54    49   ar
    64    46    41   ar
    65     9     1   ar
    66     9     5   ar
    67    34    28   ar
    68    16    10   ar
    69    27    21    1
@<TRIPOS>MOLECULE
*****
 62 69 0 0 0
SMALL
GASTEIGER

@<TRIPOS>ATOM
      1 C         139.4481  139.0101  165.4179 C.ar    1  UNL1        0.2284
      2 N         138.2330  138.1312  165.3852 N.ar    1  UNL1       -0.1893
      3 C         137.4149  137.9361  166.6272 C.ar    1  UNL1        0.2020
      4 N         137.8118  138.6200  167.9019 N.ar    1  UNL1       -0.2171
      5 C         139.0269  139.4989  167.9345 C.ar    1  UNL1        0.1169
      6 S         139.6592  140.2967  169.0362 S.2     1  UNL1       -0.0678
      7 C         140.8682  140.9849  168.4750 C.ar    1  UNL1        0.0310
      8 C         140.9830  140.6124  167.0266 C.ar    1  UNL1        0.0122
      9 C         139.8450  139.6939  166.6926 C.ar    1  UNL1        0.0775
     10 C         142.0487  141.0767  166.0786 C.ar    1  UNL1       -0.0023
     11 C         142.0390  142.4887  165.5727 C.ar    1  UNL1        0.0029
     12 C         143.1047  142.9531  164.6247 C.ar    1  UNL1        0.0378
     13 C         144.1800  142.0054  164.1826 C.ar    1  UNL1        0.1487
     14 C         144.1897  140.5933  164.6886 C.ar    1  UNL1        0.0876
     15 CL        145.2651  139.6456  164.2466 Cl      1  UNL1       -0.0794
     16 C         143.1241  140.1289  165.6366 C.ar    1  UNL1       -0.0083
     17 C         143.1338  138.7169  166.1425 C.3     1  UNL1        0.0320
     18 O         145.2457  142.4697  163.2347 O.3     1  UNL1       -0.4731
     19 C         145.1182  142.1883  161.7668 C.3     1  UNL1        0.2227
     20 C         143.7639  141.9712  161.1597 C.3     1  UNL1        0.1201
     21 N         143.5174  140.7795  160.2827 N.3     1  UNL1       -0.2672
     22 C         143.2724  139.4335  160.8977 C.3     1  UNL1        0.0898
     23 C         143.0260  138.2418  160.0208 C.3     1  UNL1        0.0897
     24 N         143.0245  138.3960  158.5287 N.3     1  UNL1       -0.2691
     25 C         142.7781  137.2043  157.6518 C.3     1  UNL1        0.0897
     26 C         143.2695  139.7419  157.9137 C.3     1  UNL1        0.0897
     27 C         143.5160  140.9337  158.7907 C.3     1  UNL1        0.0898
     28 C         141.7989  141.8872  169.2299 C.ar    1  UNL1        0.0062
     29 C         141.2563  143.0714  169.9736 C.ar    1  UNL1        0.0028
     30 C         142.1870  143.9737  170.7284 C.ar    1  UNL1        0.0297
     31 C         143.6602  143.6917  170.7395 C.ar    1  UNL1        0.1401
     32 F         144.5909  144.5940  171.4943 F       1  UNL1       -0.2042
     33 C         144.2028  142.5074  169.9957 C.ar    1  UNL1        0.0297
     34 C         143.2721  141.6052  169.2409 C.ar    1  UNL1        0.0028
     35 O         140.2663  139.2052  164.1759 O.3     1  UNL1       -0.4578
     36 C         139.6563  139.8575  162.9707 C.3     1  UNL1        0.2079
     37 C         138.6013  139.1393  162.1825 C.2     1  UNL1        0.0904
     38 O         137.5022  139.9152  161.5193 O.co2   1  UNL1       -0.5455
     39 O         138.6455  137.6451  162.0575 O.co2   1  UNL1       -0.5455
     40 C         140.1012  141.2279  162.5538 C.3     1  UNL1        0.0789
     41 C         140.0252  143.8072  162.8565 C.ar    1  UNL1        0.1352
     42 C         139.4856  145.0173  163.5598 C.ar    1  UNL1        0.0366
     43 C         138.4825  144.8581  164.6636 C.ar    1  UNL1        0.0031
     44 C         138.0189  143.4889  165.0641 C.ar    1  UNL1       -0.0001
     45 C         138.5585  142.2789  164.3608 C.ar    1  UNL1       -0.0011
     46 C         139.5616  142.4380  163.2570 C.ar    1  UNL1        0.0158
     47 O         141.0284  143.9663  161.7527 O.3     1  UNL1       -0.4693
     48 C         140.9247  145.1254  160.8064 C.3     1  UNL1        0.2509
     49 C         139.4625  143.8421  157.3473 C.ar    1  UNL1        0.1649
     50 N         140.4779  144.3909  156.3893 N.ar    1  UNL1       -0.2249
     51 C         141.6422  145.1845  156.9036 C.ar    1  UNL1        0.1019
     52 C         141.7912  145.4293  158.3760 C.ar    1  UNL1        0.0391
     53 C         140.7757  144.8806  159.3340 C.ar    1  UNL1        0.1058
     54 N         139.6114  144.0870  158.8196 N.ar    1  UNL1       -0.2271
     55 C         137.9811  141.7094  157.4296 C.ar    1  UNL1        0.1416
     56 C         136.8168  140.9158  156.9153 C.ar    1  UNL1        0.0370
     57 C         135.9695  141.4614  155.8043 C.ar    1  UNL1        0.0031
     58 C         136.2865  142.8006  155.2076 C.ar    1  UNL1        0.0003
     59 C         137.4508  143.5941  155.7220 C.ar    1  UNL1        0.0061
     60 C         138.2981  143.0486  156.8330 C.ar    1  UNL1        0.0697
     61 C         139.4843  139.8227  158.3944 C.3     1  UNL1        0.2525
     62 O         138.8285  141.1637  158.5407 O.3     1  UNL1       -0.4713
@<TRIPOS>UNITY_ATOM_ATTR
38 1
charge -1
@<TRIPOS>BOND
     1    61    62    1
     2    62    55    1
     3    55    56   ar
     4    56    57   ar
     5    57    58   ar
     6    58    59   ar
     7    59    60   ar
     8    60    49    1
     9    49    50   ar
    10    50    51   ar
    11    51    52   ar
    12    52    53   ar
    13    53    48    1
    14    48    47    1
    15    47    41    1
    16    41    42   ar
    17    42    43   ar
    18    43    44   ar
    19    44    45   ar
    20    45    46   ar
    21    46    40    1
    22    36    40    1
    23    36    35    1
    24    35     1    1
    25     1     2   ar
    26     2     3   ar
    27     3     4   ar
    28     4     5   ar
    29     5     6   ar
    30     6     7   ar
    31     7    28    1
    32    28    29   ar
    33    29    30   ar
    34    30    31   ar
    35    31    32    1
    36    31    33   ar
    37    33    34   ar
    38     7     8   ar
    39     8    10    1
    40    10    11   ar
    41    11    12   ar
    42    12    13   ar
    43    13    18    1
    44    18    19    1
    45    19    20    1
    46    20    21    1
    47    21    22    1
    48    22    23    1
    49    23    24    1
    50    24    25    1
    51    24    26    1
    52    26    27    1
    53    13    14   ar
    54    14    15    1
    55    14    16   ar
    56    16    17    1
    57     8     9   ar
    58    36    37    1
    59    37    38   ar
    60    37    39   ar
    61    53    54   ar
    62    60    55   ar
    63    54    49   ar
    64    46    41   ar
    65     9     1   ar
    66     9     5   ar
    67    34    28   ar
    68    16    10   ar
    69    27    21    1
@<TRIPOS>MOLECULE
*****
 62 69 0 0 0
SMALL
GASTEIGER

@<TRIPOS>ATOM
      1 C         139.3495  138.9656  165.6873 C.ar    1  UNL1        0.2284
      2 N         138.1056  138.1274  165.7023 N.ar    1  UNL1       -0.1893
      3 C         137.2985  138.0056  166.9607 C.ar    1  UNL1        0.2020
      4 N         137.7351  138.7221  168.2041 N.ar    1  UNL1       -0.2171
      5 C         138.9789  139.5603  168.1891 C.ar    1  UNL1        0.1169
      6 S         139.6523  140.3763  169.2525 S.2     1  UNL1       -0.0678
      7 C         140.8756  141.0024  168.6512 C.ar    1  UNL1        0.0310
      8 C         140.9584  140.5734  167.2163 C.ar    1  UNL1        0.0122
      9 C         139.7861  139.6821  166.9307 C.ar    1  UNL1        0.0775
     10 C         142.0258  140.9666  166.2386 C.ar    1  UNL1       -0.0023
     11 C         142.0502  142.3557  165.6732 C.ar    1  UNL1        0.0029
     12 C         143.1176  142.7489  164.6955 C.ar    1  UNL1        0.0378
     13 C         144.1608  141.7530  164.2833 C.ar    1  UNL1        0.1487
     14 C         144.1365  140.3639  164.8488 C.ar    1  UNL1        0.0876
     15 CL        145.1796  139.3679  164.4366 Cl      1  UNL1       -0.0794
     16 C         143.0690  139.9706  165.8264 C.ar    1  UNL1       -0.0083
     17 C         143.0447  138.5815  166.3919 C.3     1  UNL1        0.0320
     18 O         145.2282  142.1462  163.3056 O.3     1  UNL1       -0.4731
     19 C         145.0428  141.8726  161.8425 C.3     1  UNL1        0.2227
     20 C         144.4207  142.9123  160.9581 C.3     1  UNL1        0.1201
     21 N         144.4630  142.7515  159.4673 N.3     1  UNL1       -0.2672
     22 C         143.1970  142.8368  158.6675 C.3     1  UNL1        0.0898
     23 C         143.2393  142.6761  157.1768 C.3     1  UNL1        0.0897
     24 N         144.5477  142.4300  156.4858 N.3     1  UNL1       -0.2691
     25 C         144.5900  142.2693  154.9950 C.3     1  UNL1        0.0897
     26 C         145.8138  142.3447  157.2856 C.3     1  UNL1        0.0897
     27 C         145.7715  142.5055  158.7763 C.3     1  UNL1        0.0898
     28 C         141.8459  141.9000  169.3605 C.ar    1  UNL1        0.0062
     29 C         141.3478  143.1021  170.1068 C.ar    1  UNL1        0.0028
     30 C         142.3180  143.9996  170.8160 C.ar    1  UNL1        0.0297
     31 C         143.7863  143.6951  170.7790 C.ar    1  UNL1        0.1401
     32 F         144.7566  144.5927  171.4882 F       1  UNL1       -0.2042
     33 C         144.2844  142.4930  170.0327 C.ar    1  UNL1        0.0297
     34 C         143.3141  141.5955  169.3235 C.ar    1  UNL1        0.0028
     35 O         140.1567  139.0874  164.4289 O.3     1  UNL1       -0.4578
     36 C         139.6045  138.5764  163.1312 C.3     1  UNL1        0.2079
     37 C         138.2493  139.0205  162.6661 C.2     1  UNL1        0.0904
     38 O         137.6965  140.3398  163.1175 O.co2   1  UNL1       -0.5455
     39 O         137.4469  138.1452  161.7495 O.co2   1  UNL1       -0.5455
     40 C         140.4074  137.6213  162.2987 C.3     1  UNL1        0.0789
     41 C         141.1686  138.7546  160.0882 C.ar    1  UNL1        0.1352
     42 C         142.2643  139.2697  159.2028 C.ar    1  UNL1        0.0366
     43 C         143.6948  139.1665  159.6425 C.ar    1  UNL1        0.0031
     44 C         144.0294  138.5483  160.9675 C.ar    1  UNL1       -0.0001
     45 C         142.9336  138.0332  161.8529 C.ar    1  UNL1       -0.0011
     46 C         141.5032  138.1364  161.4133 C.ar    1  UNL1        0.0158
     47 O         139.7382  138.8578  159.6486 O.3     1  UNL1       -0.4693
     48 C         139.3419  139.8723  158.6173 C.3     1  UNL1        0.2509
     49 C         139.2533  143.2557  160.6898 C.ar    1  UNL1        0.1649
     50 N         139.4951  144.2604  159.6026 N.ar    1  UNL1       -0.2249
     51 C         139.6859  143.8025  158.1870 C.ar    1  UNL1        0.1019
     52 C         139.6348  142.3399  157.8586 C.ar    1  UNL1        0.0391
     53 C         139.3930  141.3351  158.9457 C.ar    1  UNL1        0.1058
     54 N         139.2022  141.7930  160.3613 N.ar    1  UNL1       -0.2271
     55 C         140.1996  144.3516  162.8469 C.ar    1  UNL1        0.1416
     56 C         140.0088  144.8095  164.2625 C.ar    1  UNL1        0.0370
     57 C         138.6810  144.6294  164.9366 C.ar    1  UNL1        0.0031
     58 C         137.5440  143.9913  164.1950 C.ar    1  UNL1        0.0003
     59 C         137.7347  143.5334  162.7794 C.ar    1  UNL1        0.0061
     60 C         139.0625  143.7136  162.1054 C.ar    1  UNL1        0.0697
     61 C         142.6059  145.3314  162.8420 C.3     1  UNL1        0.2525
     62 O         141.5275  144.5319  162.1728 O.3     1  UNL1       -0.4713
@<TRIPOS>UNITY_ATOM_ATTR
38 1
charge -1
@<TRIPOS>BOND
     1    61    62    1
     2    62    55    1
     3    55    56   ar
     4    56    57   ar
     5    57    58   ar
     6    58    59   ar
     7    59    60   ar
     8    60    49    1
     9    49    50   ar
    10    50    51   ar
    11    51    52   ar
    12    52    53   ar
    13    53    48    1
    14    48    47    1
    15    47    41    1
    16    41    42   ar
    17    42    43   ar
    18    43    44   ar
    19    44    45   ar
    20    45    46   ar
    21    46    40    1
    22    36    40    1
    23    36    35    1
    24    35     1    1
    25     1     2   ar
    26     2     3   ar
    27     3     4   ar
    28     4     5   ar
    29     5     6   ar
    30     6     7   ar
    31     7    28    1
    32    28    29   ar
    33    29    30   ar
    34    30    31   ar
    35    31    32    1
    36    31    33   ar
    37    33    34   ar
    38     7     8   ar
    39     8    10    1
    40    10    11   ar
    41    11    12   ar
    42    12    13   ar
    43    13    18    1
    44    18    19    1
    45    19    20    1
    46    20    21    1
    47    21    22    1
    48    22    23    1
    49    23    24    1
    50    24    25    1
    51    24    26    1
    52    26    27    1
    53    13    14   ar
    54    14    15    1
    55    14    16   ar
    56    16    17    1
    57     8     9   ar
    58    36    37    1
    59    37    38   ar
    60    37    39   ar
    61    53    54   ar
    62    60    55   ar
    63    54    49   ar
    64    46    41   ar
    65     9     1   ar
    66     9     5   ar
    67    34    28   ar
    68    16    10   ar
    69    27    21    1
@<TRIPOS>MOLECULE
*****
 62 69 0 0 0
SMALL
GASTEIGER

@<TRIPOS>ATOM
      1 C         139.2500  139.0182  165.6117 C.ar    1  UNL1        0.2284
      2 N         138.0374  138.1355  165.6321 N.ar    1  UNL1       -0.1893
      3 C         137.2733  137.9402  166.9080 C.ar    1  UNL1        0.2020
      4 N         137.7218  138.6275  168.1635 N.ar    1  UNL1       -0.2171
      5 C         138.9344  139.5102  168.1432 C.ar    1  UNL1        0.1169
      6 S         139.6104  140.3120  169.2156 S.2     1  UNL1       -0.0678
      7 C         140.7923  141.0028  168.6025 C.ar    1  UNL1        0.0310
      8 C         140.8468  140.6280  167.1511 C.ar    1  UNL1        0.0122
      9 C         139.6985  139.7055  166.8672 C.ar    1  UNL1        0.0775
     10 C         141.8698  141.0939  166.1580 C.ar    1  UNL1       -0.0023
     11 C         141.7581  142.4613  165.5517 C.ar    1  UNL1        0.0029
     12 C         142.7811  142.9273  164.5585 C.ar    1  UNL1        0.0378
     13 C         143.9158  142.0257  164.1717 C.ar    1  UNL1        0.1487
     14 C         144.0275  140.6583  164.7781 C.ar    1  UNL1        0.0876
     15 CL        145.1622  139.7567  164.3913 Cl      1  UNL1       -0.0794
     16 C         143.0045  140.1923  165.7712 C.ar    1  UNL1       -0.0083
     17 C         143.1162  138.8249  166.3776 C.3     1  UNL1        0.0320
     18 O         144.9389  142.4916  163.1786 O.3     1  UNL1       -0.4731
     19 C         144.5130  143.2866  161.9801 C.3     1  UNL1        0.2227
     20 C         143.6031  142.6728  160.9576 C.3     1  UNL1        0.1201
     21 N         142.8090  143.5511  160.0368 N.3     1  UNL1       -0.2672
     22 C         141.7157  144.4191  160.5857 C.3     1  UNL1        0.0898
     23 C         140.9216  145.2974  159.6648 C.3     1  UNL1        0.0897
     24 N         141.2207  145.3077  158.1950 N.3     1  UNL1       -0.2691
     25 C         140.4266  146.1860  157.2741 C.3     1  UNL1        0.0897
     26 C         142.3140  144.4397  157.6461 C.3     1  UNL1        0.0897
     27 C         143.1081  143.5615  158.5669 C.3     1  UNL1        0.0898
     28 C         141.7514  141.9093  169.3157 C.ar    1  UNL1        0.0062
     29 C         141.2445  143.1334  170.0189 C.ar    1  UNL1        0.0028
     30 C         142.2035  144.0399  170.7320 C.ar    1  UNL1        0.0297
     31 C         143.6695  143.7222  170.7419 C.ar    1  UNL1        0.1401
     32 F         144.6285  144.6287  171.4551 F       1  UNL1       -0.2042
     33 C         144.1764  142.4981  170.0387 C.ar    1  UNL1        0.0297
     34 C         143.2173  141.5916  169.3256 C.ar    1  UNL1        0.0028
     35 O         140.0141  139.2135  164.3358 O.3     1  UNL1       -0.4578
     36 C         139.3164  139.0756  163.0151 C.3     1  UNL1        0.2079
     37 C         139.8405  138.1179  161.9864 C.2     1  UNL1        0.0904
     38 O         139.1868  138.0327  160.6390 O.co2   1  UNL1       -0.5455
     39 O         141.0183  137.2453  162.3051 O.co2   1  UNL1       -0.5455
     40 C         138.0946  139.8953  162.7231 C.3     1  UNL1        0.0789
     41 C         138.3382  142.3023  161.7757 C.ar    1  UNL1        0.1352
     42 C         138.3620  143.7866  161.9905 C.ar    1  UNL1        0.0366
     43 C         138.1660  144.3484  163.3675 C.ar    1  UNL1        0.0031
     44 C         137.9463  143.4258  164.5296 C.ar    1  UNL1       -0.0001
     45 C         137.9225  141.9415  164.3148 C.ar    1  UNL1       -0.0011
     46 C         138.1184  141.3797  162.9379 C.ar    1  UNL1        0.0158
     47 O         138.5342  141.7404  160.3988 O.3     1  UNL1       -0.4693
     48 C         139.9151  141.4185  159.9097 C.3     1  UNL1        0.2509
     49 C         141.0331  139.4609  156.6435 C.ar    1  UNL1        0.1649
     50 N         140.5902  140.4161  155.5750 N.ar    1  UNL1       -0.2249
     51 C         139.9224  141.7053  155.9515 C.ar    1  UNL1        0.1019
     52 C         139.6973  142.0395  157.3963 C.ar    1  UNL1        0.0391
     53 C         140.1401  141.0844  158.4647 C.ar    1  UNL1        0.1058
     54 N         140.8080  139.7951  158.0883 N.ar    1  UNL1       -0.2271
     55 C         140.8752  136.9453  156.0135 C.ar    1  UNL1        0.1416
     56 C         141.5431  135.6561  155.6371 C.ar    1  UNL1        0.0370
     57 C         143.0367  135.5931  155.5142 C.ar    1  UNL1        0.0031
     58 C         143.8624  136.8194  155.7676 C.ar    1  UNL1        0.0003
     59 C         143.1945  138.1087  156.1441 C.ar    1  UNL1        0.0061
     60 C         141.7010  138.1717  156.2670 C.ar    1  UNL1        0.0697
     61 C         138.5415  137.3051  154.9298 C.3     1  UNL1        0.2525
     62 O         139.3816  137.0083  156.1365 O.3     1  UNL1       -0.4713
@<TRIPOS>UNITY_ATOM_ATTR
38 1
charge -1
@<TRIPOS>BOND
     1    61    62    1
     2    62    55    1
     3    55    56   ar
     4    56    57   ar
     5    57    58   ar
     6    58    59   ar
     7    59    60   ar
     8    60    49    1
     9    49    50   ar
    10    50    51   ar
    11    51    52   ar
    12    52    53   ar
    13    53    48    1
    14    48    47    1
    15    47    41    1
    16    41    42   ar
    17    42    43   ar
    18    43    44   ar
    19    44    45   ar
    20    45    46   ar
    21    46    40    1
    22    36    40    1
    23    36    35    1
    24    35     1    1
    25     1     2   ar
    26     2     3   ar
    27     3     4   ar
    28     4     5   ar
    29     5     6   ar
    30     6     7   ar
    31     7    28    1
    32    28    29   ar
    33    29    30   ar
    34    30    31   ar
    35    31    32    1
    36    31    33   ar
    37    33    34   ar
    38     7     8   ar
    39     8    10    1
    40    10    11   ar
    41    11    12   ar
    42    12    13   ar
    43    13    18    1
    44    18    19    1
    45    19    20    1
    46    20    21    1
    47    21    22    1
    48    22    23    1
    49    23    24    1
    50    24    25    1
    51    24    26    1
    52    26    27    1
    53    13    14   ar
    54    14    15    1
    55    14    16   ar
    56    16    17    1
    57     8     9   ar
    58    36    37    1
    59    37    38   ar
    60    37    39   ar
    61    53    54   ar
    62    60    55   ar
    63    54    49   ar
    64    46    41   ar
    65     9     1   ar
    66     9     5   ar
    67    34    28   ar
    68    16    10   ar
    69    27    21    1
@<TRIPOS>MOLECULE
*****
 62 69 0 0 0
SMALL
GASTEIGER

@<TRIPOS>ATOM
      1 C         139.2777  139.2018  165.6824 C.ar    1  UNL1        0.2284
      2 N         138.0610  138.3250  165.7080 N.ar    1  UNL1       -0.1893
      3 C         137.3221  138.1049  166.9947 C.ar    1  UNL1        0.2020
      4 N         137.8000  138.7617  168.2558 N.ar    1  UNL1       -0.2171
      5 C         139.0167  139.6385  168.2302 C.ar    1  UNL1        0.1169
      6 S         139.7189  140.4127  169.3061 S.2     1  UNL1       -0.0678
      7 C         140.8917  141.1112  168.6844 C.ar    1  UNL1        0.0310
      8 C         140.9144  140.7688  167.2242 C.ar    1  UNL1        0.0122
      9 C         139.7555  139.8586  166.9435 C.ar    1  UNL1        0.0775
     10 C         141.9194  141.2517  166.2208 C.ar    1  UNL1       -0.0023
     11 C         141.7867  142.6225  165.6264 C.ar    1  UNL1        0.0029
     12 C         142.7917  143.1055  164.6231 C.ar    1  UNL1        0.0378
     13 C         143.9294  142.2176  164.2141 C.ar    1  UNL1        0.1487
     14 C         144.0621  140.8468  164.8085 C.ar    1  UNL1        0.0876
     15 CL        145.1999  139.9589  164.3996 Cl      1  UNL1       -0.0794
     16 C         143.0572  140.3638  165.8119 C.ar    1  UNL1       -0.0083
     17 C         143.1899  138.9930  166.4062 C.3     1  UNL1        0.0320
     18 O         144.9344  142.7005  163.2108 O.3     1  UNL1       -0.4731
     19 C         144.4755  143.4099  161.9713 C.3     1  UNL1        0.2227
     20 C         143.4350  142.7840  161.0907 C.3     1  UNL1        0.1201
     21 N         142.6247  143.6395  160.1626 N.3     1  UNL1       -0.2672
     22 C         141.5317  144.5104  160.7074 C.3     1  UNL1        0.0898
     23 C         140.7214  145.3660  159.7793 C.3     1  UNL1        0.0897
     24 N         141.0040  145.3507  158.3063 N.3     1  UNL1       -0.2691
     25 C         140.1937  146.2062  157.3782 C.3     1  UNL1        0.0897
     26 C         142.0970  144.4798  157.7614 C.3     1  UNL1        0.0897
     27 C         142.9073  143.6242  158.6896 C.3     1  UNL1        0.0898
     28 C         141.8701  141.9967  169.3977 C.ar    1  UNL1        0.0062
     29 C         141.3862  143.2157  170.1254 C.ar    1  UNL1        0.0028
     30 C         142.3645  144.1011  170.8386 C.ar    1  UNL1        0.0297
     31 C         143.8269  143.7675  170.8242 C.ar    1  UNL1        0.1401
     32 F         144.8053  144.6530  171.5375 F       1  UNL1       -0.2042
     33 C         144.3109  142.5484  170.0965 C.ar    1  UNL1        0.0297
     34 C         143.3325  141.6630  169.3832 C.ar    1  UNL1        0.0028
     35 O         140.0166  139.4219  164.3957 O.3     1  UNL1       -0.4578
     36 C         139.5437  138.7583  163.1363 C.3     1  UNL1        0.2079
     37 C         138.2084  139.1177  162.5550 C.2     1  UNL1        0.0904
     38 O         137.6031  140.4602  162.8401 O.co2   1  UNL1       -0.5455
     39 O         137.4784  138.1346  161.6886 O.co2   1  UNL1       -0.5455
     40 C         140.4061  137.7354  162.4582 C.3     1  UNL1        0.0789
     41 C         141.3714  138.4664  160.1595 C.ar    1  UNL1        0.1352
     42 C         142.5339  138.9041  159.3186 C.ar    1  UNL1        0.0366
     43 C         143.8936  139.0484  159.9356 C.ar    1  UNL1        0.0031
     44 C         144.0907  138.7550  161.3933 C.ar    1  UNL1       -0.0001
     45 C         142.9282  138.3173  162.2342 C.ar    1  UNL1       -0.0011
     46 C         141.5686  138.1731  161.6173 C.ar    1  UNL1        0.0158
     47 O         140.0118  138.3221  159.5426 O.3     1  UNL1       -0.4693
     48 C         139.7741  138.7829  158.1351 C.3     1  UNL1        0.2509
     49 C         137.2437  141.4084  156.5685 C.ar    1  UNL1        0.1649
     50 N         137.5742  142.6330  157.3691 N.ar    1  UNL1       -0.2249
     51 C         138.6380  142.5744  158.4250 C.ar    1  UNL1        0.1019
     52 C         139.3713  141.2910  158.6803 C.ar    1  UNL1        0.0391
     53 C         139.0408  140.0663  157.8798 C.ar    1  UNL1        0.1058
     54 N         137.9770  140.1250  156.8239 N.ar    1  UNL1       -0.2271
     55 C         134.8642  140.7820  155.7347 C.ar    1  UNL1        0.1416
     56 C         133.8004  140.8407  154.6788 C.ar    1  UNL1        0.0370
     57 C         134.0524  141.5845  153.4008 C.ar    1  UNL1        0.0031
     58 C         135.3682  142.2695  153.1787 C.ar    1  UNL1        0.0003
     59 C         136.4320  142.2108  154.2346 C.ar    1  UNL1        0.0061
     60 C         136.1800  141.4671  155.5126 C.ar    1  UNL1        0.0697
     61 C         133.2138  139.6477  157.3900 C.3     1  UNL1        0.2525
     62 O         134.6121  140.0383  157.0128 O.3     1  UNL1       -0.4713
@<TRIPOS>UNITY_ATOM_ATTR
38 1
charge -1
@<TRIPOS>BOND
     1    61    62    1
     2    62    55    1
     3    55    56   ar
     4    56    57   ar
     5    57    58   ar
     6    58    59   ar
     7    59    60   ar
     8    60    49    1
     9    49    50   ar
    10    50    51   ar
    11    51    52   ar
    12    52    53   ar
    13    53    48    1
    14    48    47    1
    15    47    41    1
    16    41    42   ar
    17    42    43   ar
    18    43    44   ar
    19    44    45   ar
    20    45    46   ar
    21    46    40    1
    22    36    40    1
    23    36    35    1
    24    35     1    1
    25     1     2   ar
    26     2     3   ar
    27     3     4   ar
    28     4     5   ar
    29     5     6   ar
    30     6     7   ar
    31     7    28    1
    32    28    29   ar
    33    29    30   ar
    34    30    31   ar
    35    31    32    1
    36    31    33   ar
    37    33    34   ar
    38     7     8   ar
    39     8    10    1
    40    10    11   ar
    41    11    12   ar
    42    12    13   ar
    43    13    18    1
    44    18    19    1
    45    19    20    1
    46    20    21    1
    47    21    22    1
    48    22    23    1
    49    23    24    1
    50    24    25    1
    51    24    26    1
    52    26    27    1
    53    13    14   ar
    54    14    15    1
    55    14    16   ar
    56    16    17    1
    57     8     9   ar
    58    36    37    1
    59    37    38   ar
    60    37    39   ar
    61    53    54   ar
    62    60    55   ar
    63    54    49   ar
    64    46    41   ar
    65     9     1   ar
    66     9     5   ar
    67    34    28   ar
    68    16    10   ar
    69    27    21    1
@<TRIPOS>MOLECULE
*****
 62 69 0 0 0
SMALL
GASTEIGER

@<TRIPOS>ATOM
      1 C         142.4435  138.3720  157.3986 C.ar    1  UNL1        0.2284
      2 N         142.2354  136.8891  157.3109 N.ar    1  UNL1       -0.1893
      3 C         142.9908  136.0846  156.2950 C.ar    1  UNL1        0.2020
      4 N         143.9542  136.7629  155.3668 N.ar    1  UNL1       -0.2171
      5 C         144.1623  138.2458  155.4545 C.ar    1  UNL1        0.1169
      6 S         145.0390  139.1839  154.6790 S.2     1  UNL1       -0.0678
      7 C         144.8254  140.5683  155.2157 C.ar    1  UNL1        0.0310
      8 C         143.8167  140.4857  156.3228 C.ar    1  UNL1        0.0122
      9 C         143.4069  139.0503  156.4704 C.ar    1  UNL1        0.0775
     10 C         143.3073  141.6365  157.1391 C.ar    1  UNL1       -0.0023
     11 C         144.0134  142.0305  158.4025 C.ar    1  UNL1        0.0029
     12 C         143.5041  143.1812  159.2188 C.ar    1  UNL1        0.0378
     13 C         142.2885  143.9379  158.7716 C.ar    1  UNL1        0.1487
     14 C         141.5825  143.5439  157.5082 C.ar    1  UNL1        0.0876
     15 CL        140.3669  144.3006  157.0611 Cl      1  UNL1       -0.0794
     16 C         142.0918  142.3932  156.6919 C.ar    1  UNL1       -0.0083
     17 C         141.3857  141.9992  155.4285 C.3     1  UNL1        0.0320
     18 O         141.7791  145.0886  159.5879 O.3     1  UNL1       -0.4731
     19 C         140.5785  144.9097  160.4691 C.3     1  UNL1        0.2227
     20 C         140.7553  144.5323  161.9100 C.3     1  UNL1        0.1201
     21 N         141.9659  143.7576  162.3393 N.3     1  UNL1       -0.2672
     22 C         141.9227  142.2587  162.3771 C.3     1  UNL1        0.0898
     23 C         143.1333  141.4841  162.8064 C.3     1  UNL1        0.0897
     24 N         144.3872  142.2083  163.1980 N.3     1  UNL1       -0.2691
     25 C         145.5978  141.4336  163.6273 C.3     1  UNL1        0.0897
     26 C         144.4304  143.7071  163.1601 C.3     1  UNL1        0.0897
     27 C         143.2198  144.4818  162.7308 C.3     1  UNL1        0.0898
     28 C         145.5018  141.8161  154.7304 C.ar    1  UNL1        0.0062
     29 C         144.7340  142.8195  153.9219 C.ar    1  UNL1        0.0028
     30 C         145.4105  144.0672  153.4366 C.ar    1  UNL1        0.0297
     31 C         146.8547  144.3116  153.7599 C.ar    1  UNL1        0.1401
     32 F         147.5311  145.5595  153.2746 F       1  UNL1       -0.2042
     33 C         147.6225  143.3083  154.5684 C.ar    1  UNL1        0.0297
     34 C         146.9461  142.0605  155.0537 C.ar    1  UNL1        0.0028
     35 O         141.6880  139.1766  158.4145 O.3     1  UNL1       -0.4578
     36 C         141.5321  138.6608  159.8144 C.3     1  UNL1        0.2079
     37 C         142.7424  138.4491  160.6749 C.2     1  UNL1        0.0904
     38 O         142.6040  137.7881  162.0142 O.co2   1  UNL1       -0.5455
     39 O         144.0910  138.8985  160.1960 O.co2   1  UNL1       -0.5455
     40 C         140.1659  138.3566  160.3537 C.3     1  UNL1        0.0789
     41 C         138.5912  139.2220  162.2303 C.ar    1  UNL1        0.1352
     42 C         137.7577  140.3190  162.8234 C.ar    1  UNL1        0.0366
     43 C         137.6653  141.6476  162.1332 C.ar    1  UNL1        0.0031
     44 C         138.4065  141.8792  160.8498 C.ar    1  UNL1       -0.0001
     45 C         139.2400  140.7822  160.2567 C.ar    1  UNL1       -0.0011
     46 C         139.3323  139.4536  160.9469 C.ar    1  UNL1        0.0158
     47 O         138.6835  137.8935  162.9205 O.3     1  UNL1       -0.4693
     48 C         139.6729  137.6917  164.0296 C.3     1  UNL1        0.2509
     49 C         140.2982  139.7348  167.3740 C.ar    1  UNL1        0.1649
     50 N         138.9662  139.5895  168.0482 N.ar    1  UNL1       -0.2249
     51 C         137.8698  138.8116  167.3829 C.ar    1  UNL1        0.1019
     52 C         138.1053  138.1790  166.0434 C.ar    1  UNL1        0.0391
     53 C         139.4373  138.3243  165.3692 C.ar    1  UNL1        0.1058
     54 N         140.5338  139.1022  166.0345 N.ar    1  UNL1       -0.2271
     55 C         142.0316  141.6696  167.3280 C.ar    1  UNL1        0.1416
     56 C         143.1280  142.4475  167.9933 C.ar    1  UNL1        0.0370
     57 C         143.5876  142.0685  169.3699 C.ar    1  UNL1        0.0031
     58 C         142.9508  140.9116  170.0812 C.ar    1  UNL1        0.0003
     59 C         141.8543  140.1337  169.4159 C.ar    1  UNL1        0.0061
     60 C         141.3947  140.5127  168.0393 C.ar    1  UNL1        0.0697
     61 C         140.6479  143.2152  165.7639 C.3     1  UNL1        0.2525
     62 O         141.5719  142.0487  165.9514 O.3     1  UNL1       -0.4713
@<TRIPOS>UNITY_ATOM_ATTR
38 1
charge -1
@<TRIPOS>BOND
     1    61    62    1
     2    62    55    1
     3    55    56   ar
     4    56    57   ar
     5    57    58   ar
     6    58    59   ar
     7    59    60   ar
     8    60    49    1
     9    49    50   ar
    10    50    51   ar
    11    51    52   ar
    12    52    53   ar
    13    53    48    1
    14    48    47    1
    15    47    41    1
    16    41    42   ar
    17    42    43   ar
    18    43    44   ar
    19    44    45   ar
    20    45    46   ar
    21    46    40    1
    22    36    40    1
    23    36    35    1
    24    35     1    1
    25     1     2   ar
    26     2     3   ar
    27     3     4   ar
    28     4     5   ar
    29     5     6   ar
    30     6     7   ar
    31     7    28    1
    32    28    29   ar
    33    29    30   ar
    34    30    31   ar
    35    31    32    1
    36    31    33   ar
    37    33    34   ar
    38     7     8   ar
    39     8    10    1
    40    10    11   ar
    41    11    12   ar
    42    12    13   ar
    43    13    18    1
    44    18    19    1
    45    19    20    1
    46    20    21    1
    47    21    22    1
    48    22    23    1
    49    23    24    1
    50    24    25    1
    51    24    26    1
    52    26    27    1
    53    13    14   ar
    54    14    15    1
    55    14    16   ar
    56    16    17    1
    57     8     9   ar
    58    36    37    1
    59    37    38   ar
    60    37    39   ar
    61    53    54   ar
    62    60    55   ar
    63    54    49   ar
    64    46    41   ar
    65     9     1   ar
    66     9     5   ar
    67    34    28   ar
    68    16    10   ar
    69    27    21    1
@<TRIPOS>MOLECULE
*****
 62 69 0 0 0
SMALL
GASTEIGER

@<TRIPOS>ATOM
      1 C         138.9742  139.8429  165.5281 C.ar    1  UNL1        0.2284
      2 N         137.8533  138.8462  165.5337 N.ar    1  UNL1       -0.1893
      3 C         137.3376  138.3047  166.8340 C.ar    1  UNL1        0.2020
      4 N         137.9428  138.7601  168.1288 N.ar    1  UNL1       -0.2171
      5 C         139.0637  139.7568  168.1232 C.ar    1  UNL1        0.1169
      6 S         139.8521  140.3869  169.2329 S.2     1  UNL1       -0.0678
      7 C         140.8551  141.3177  168.6184 C.ar    1  UNL1        0.0310
      8 C         140.6866  141.2630  167.1289 C.ar    1  UNL1        0.0122
      9 C         139.5794  140.2983  166.8229 C.ar    1  UNL1        0.0775
     10 C         141.4849  142.0370  166.1222 C.ar    1  UNL1       -0.0023
     11 C         142.8999  141.6400  165.8217 C.ar    1  UNL1        0.0029
     12 C         143.6983  142.4139  164.8150 C.ar    1  UNL1        0.0378
     13 C         143.0818  143.5849  164.1088 C.ar    1  UNL1        0.1487
     14 C         141.6668  143.9819  164.4094 C.ar    1  UNL1        0.0876
     15 CL        141.0503  145.1529  163.7032 Cl      1  UNL1       -0.0794
     16 C         140.8684  143.2080  165.4161 C.ar    1  UNL1       -0.0083
     17 C         139.4535  143.6050  165.7166 C.3     1  UNL1        0.0320
     18 O         143.8802  144.3589  163.1021 O.3     1  UNL1       -0.4731
     19 C         144.3792  143.6821  161.8600 C.3     1  UNL1        0.2227
     20 C         143.4162  142.9758  160.9523 C.3     1  UNL1        0.1201
     21 N         142.6740  143.7463  159.9009 N.3     1  UNL1       -0.2672
     22 C         143.0811  143.6346  158.4615 C.3     1  UNL1        0.0898
     23 C         142.3389  144.4050  157.4101 C.3     1  UNL1        0.0897
     24 N         141.1895  145.2872  157.7980 N.3     1  UNL1       -0.2691
     25 C         140.4473  146.0577  156.7466 C.3     1  UNL1        0.0897
     26 C         140.7823  145.3990  159.2373 C.3     1  UNL1        0.0897
     27 C         141.5246  144.6285  160.2888 C.3     1  UNL1        0.0898
     28 C         141.8517  142.1561  169.3628 C.ar    1  UNL1        0.0062
     29 C         141.3910  143.3478  170.1486 C.ar    1  UNL1        0.0028
     30 C         142.3876  144.1861  170.8929 C.ar    1  UNL1        0.0297
     31 C         143.8448  143.8327  170.8514 C.ar    1  UNL1        0.1401
     32 F         144.8414  144.6711  171.5958 F       1  UNL1       -0.2042
     33 C         144.3054  142.6410  170.0656 C.ar    1  UNL1        0.0297
     34 C         143.3089  141.8027  169.3213 C.ar    1  UNL1        0.0028
     35 O         139.4899  140.3844  164.2278 O.3     1  UNL1       -0.4578
     36 C         139.7297  139.4586  163.0722 C.3     1  UNL1        0.2079
     37 C         139.0590  139.7138  161.7550 C.2     1  UNL1        0.0904
     38 O         137.8838  140.6428  161.6793 O.co2   1  UNL1       -0.5455
     39 O         139.5635  139.0399  160.5135 O.co2   1  UNL1       -0.5455
     40 C         140.6403  138.2776  163.2338 C.3     1  UNL1        0.0789
     41 C         143.1243  139.0217  163.0723 C.ar    1  UNL1        0.1352
     42 C         144.4723  139.1953  163.7069 C.ar    1  UNL1        0.0366
     43 C         144.6842  138.7982  165.1379 C.ar    1  UNL1        0.0031
     44 C         143.5482  138.2277  165.9341 C.ar    1  UNL1       -0.0001
     45 C         142.2002  138.0542  165.2994 C.ar    1  UNL1       -0.0011
     46 C         141.9883  138.4512  163.8685 C.ar    1  UNL1        0.0158
     47 O         142.9123  139.4187  161.6414 O.3     1  UNL1       -0.4693
     48 C         143.6162  138.6758  160.5448 C.3     1  UNL1        0.2509
     49 C         142.4110  137.2211  157.0546 C.ar    1  UNL1        0.1649
     50 N         141.7728  138.4349  156.4468 N.ar    1  UNL1       -0.2249
     51 C         141.7491  139.7289  157.2050 C.ar    1  UNL1        0.1019
     52 C         142.3636  139.8093  158.5710 C.ar    1  UNL1        0.0391
     53 C         143.0017  138.5955  159.1788 C.ar    1  UNL1        0.1058
     54 N         143.0255  137.3014  158.4206 N.ar    1  UNL1       -0.2271
     55 C         141.2802  135.5529  155.4150 C.ar    1  UNL1        0.1416
     56 C         141.3039  134.2589  154.6569 C.ar    1  UNL1        0.0370
     57 C         142.4822  133.3389  154.7801 C.ar    1  UNL1        0.0031
     58 C         143.6368  133.7131  155.6614 C.ar    1  UNL1        0.0003
     59 C         143.6131  135.0071  156.4196 C.ar    1  UNL1        0.0061
     60 C         142.4348  135.9271  156.2964 C.ar    1  UNL1        0.0697
     61 C         139.5784  136.8438  153.9359 C.3     1  UNL1        0.2525
     62 O         140.1017  136.4729  155.2918 O.3     1  UNL1       -0.4713
@<TRIPOS>UNITY_ATOM_ATTR
38 1
charge -1
@<TRIPOS>BOND
     1    61    62    1
     2    62    55    1
     3    55    56   ar
     4    56    57   ar
     5    57    58   ar
     6    58    59   ar
     7    59    60   ar
     8    60    49    1
     9    49    50   ar
    10    50    51   ar
    11    51    52   ar
    12    52    53   ar
    13    53    48    1
    14    48    47    1
    15    47    41    1
    16    41    42   ar
    17    42    43   ar
    18    43    44   ar
    19    44    45   ar
    20    45    46   ar
    21    46    40    1
    22    36    40    1
    23    36    35    1
    24    35     1    1
    25     1     2   ar
    26     2     3   ar
    27     3     4   ar
    28     4     5   ar
    29     5     6   ar
    30     6     7   ar
    31     7    28    1
    32    28    29   ar
    33    29    30   ar
    34    30    31   ar
    35    31    32    1
    36    31    33   ar
    37    33    34   ar
    38     7     8   ar
    39     8    10    1
    40    10    11   ar
    41    11    12   ar
    42    12    13   ar
    43    13    18    1
    44    18    19    1
    45    19    20    1
    46    20    21    1
    47    21    22    1
    48    22    23    1
    49    23    24    1
    50    24    25    1
    51    24    26    1
    52    26    27    1
    53    13    14   ar
    54    14    15    1
    55    14    16   ar
    56    16    17    1
    57     8     9   ar
    58    36    37    1
    59    37    38   ar
    60    37    39   ar
    61    53    54   ar
    62    60    55   ar
    63    54    49   ar
    64    46    41   ar
    65     9     1   ar
    66     9     5   ar
    67    34    28   ar
    68    16    10   ar
    69    27    21    1
