@<TRIPOS>MOLECULE
*****
 31 33 0 0 0
SMALL
GASTEIGER

@<TRIPOS>ATOM
      1 N         139.1213  139.9011  166.7753 N.3     1  UNL1       -0.2659
      2 C         139.3017  140.9421  165.7105 C.3     1  UNL1        0.0614
      3 C         140.6193  141.6437  165.5632 C.3     1  UNL1        0.0375
      4 C         140.7997  142.6847  164.4984 C.3     1  UNL1        0.0950
      5 N         139.6626  143.0241  163.5810 N.pl3   1  UNL1       -0.2785
      6 C         138.3449  142.3225  163.7283 C.3     1  UNL1        0.0950
      7 C         138.1645  141.2815  164.7931 C.3     1  UNL1        0.0375
      8 C         139.8430  144.0651  162.5162 C.ar    1  UNL1        0.2163
      9 N         140.9572  144.1165  161.5131 N.ar    1  UNL1       -0.1804
     10 C         140.7437  145.3207  160.6445 C.ar    1  UNL1        0.2331
     11 N         141.6221  145.7556  159.5091 N.pl3   1  UNL1       -0.3262
     12 N         139.4976  146.0135  161.1107 N.ar    1  UNL1       -0.1354
     13 N         138.9410  145.2375  162.2675 N.ar    1  UNL1       -0.2450
     14 H         142.4230  145.2319  159.2778 H       1  UNL1        0.1452
     15 H         141.3976  146.5647  158.9951 H       1  UNL1        0.1452
     16 H         138.1266  145.4589  162.7745 H       1  UNL1        0.1919
     17 C         139.9973  139.9140  167.9929 C.3     1  UNL1        0.1584
     18 C         139.7511  142.8622  170.6381 C.3     1  UNL1        0.1107
     19 N         140.1584  142.0727  169.4295 N.am    1  UNL1       -0.3015
     20 C         139.5900  140.7034  169.2015 C.2     1  UNL1        0.2389
     21 O         138.6142  140.1236  170.1822 O.2     1  UNL1       -0.2736
     22 H         140.7989  142.4533  168.7859 H       1  UNL1        0.1495
     23 C         138.0648  138.8472  166.6225 C.3     1  UNL1        0.0772
     24 C         138.3565  137.6007  165.8409 C.3     1  UNL1        0.0437
     25 C         139.2638  137.6586  164.6478 C.ar    1  UNL1       -0.0207
     26 C         138.6928  137.9034  163.2825 C.ar    1  UNL1       -0.0034
     27 C         139.6001  137.9612  162.0895 C.ar    1  UNL1        0.0111
     28 C         141.0784  137.7743  162.2617 C.ar    1  UNL1        0.0577
     29 CL        141.9857  137.8322  161.0685 Cl      1  UNL1       -0.0822
     30 C         141.6494  137.5295  163.6269 C.ar    1  UNL1        0.0111
     31 C         140.7421  137.4716  164.8200 C.ar    1  UNL1       -0.0034
@<TRIPOS>BOND
     1    18    19    1
     2    19    20   am
     3    20    21    2
     4    20    17    1
     5    17     1    1
     6     1    23    1
     7    23    24    1
     8    24    25    1
     9    25    26   ar
    10    26    27   ar
    11    27    28   ar
    12    28    29    1
    13    28    30   ar
    14    30    31   ar
    15     1     2    1
    16     2     3    1
    17     3     4    1
    18     4     5    1
    19     5     8    1
    20     8     9   ar
    21     9    10   ar
    22    10    11    1
    23    10    12   ar
    24    12    13   ar
    25     5     6    1
    26     6     7    1
    27    31    25   ar
    28     7     2    1
    29    13     8   ar
    30    19    22    1
    31    11    14    1
    32    11    15    1
    33    13    16    1
@<TRIPOS>MOLECULE
*****
 31 33 0 0 0
SMALL
GASTEIGER

@<TRIPOS>ATOM
      1 N         140.4341  141.9778  167.6448 N.3     1  UNL1       -0.2659
      2 C         140.4417  142.6166  166.2877 C.3     1  UNL1        0.0614
      3 C         141.4033  142.1400  165.2398 C.3     1  UNL1        0.0375
      4 C         141.4110  142.7788  163.8826 C.3     1  UNL1        0.0950
      5 N         140.4570  143.8942  163.5734 N.pl3   1  UNL1       -0.2785
      6 C         139.4953  144.3709  164.6213 C.3     1  UNL1        0.0950
      7 C         139.4877  143.7321  165.9784 C.3     1  UNL1        0.0375
      8 C         140.4647  144.5330  162.2162 C.ar    1  UNL1        0.2163
      9 N         141.5846  144.4735  161.2200 N.ar    1  UNL1       -0.1804
     10 C         141.1658  145.2472  160.0051 C.ar    1  UNL1        0.2331
     11 N         141.9824  145.4480  158.7630 N.pl3   1  UNL1       -0.3262
     12 N         139.7871  145.7848  160.2503 N.ar    1  UNL1       -0.1354
     13 N         139.3538  145.3434  161.6169 N.ar    1  UNL1       -0.2450
     14 H         142.8818  145.0533  158.6960 H       1  UNL1        0.1452
     15 H         141.6189  145.9745  158.0147 H       1  UNL1        0.1452
     16 H         138.4916  145.5494  162.0452 H       1  UNL1        0.1919
     17 C         140.5711  142.8265  168.8740 C.3     1  UNL1        0.1584
     18 C         144.3664  142.5428  169.9989 C.3     1  UNL1        0.1107
     19 N         143.1524  142.6749  169.1280 N.am    1  UNL1       -0.3015
     20 C         141.7852  142.6945  169.7450 C.2     1  UNL1        0.2389
     21 O         141.6322  142.5821  171.2329 O.2     1  UNL1       -0.2736
     22 H         143.2528  142.7486  168.1514 H       1  UNL1        0.1495
     23 C         140.2894  140.4903  167.7728 C.3     1  UNL1        0.0772
     24 C         139.0311  139.8167  167.3113 C.3     1  UNL1        0.0437
     25 C         138.8634  139.4495  165.8666 C.ar    1  UNL1       -0.0207
     26 C         139.4546  138.1741  165.3435 C.ar    1  UNL1       -0.0034
     27 C         139.2869  137.8069  163.8988 C.ar    1  UNL1        0.0111
     28 C         138.5279  138.7152  162.9774 C.ar    1  UNL1        0.0577
     29 CL        138.3602  138.3479  161.5327 Cl      1  UNL1       -0.0822
     30 C         137.9367  139.9906  163.5005 C.ar    1  UNL1        0.0111
     31 C         138.1044  140.3577  164.9452 C.ar    1  UNL1       -0.0034
@<TRIPOS>BOND
     1    18    19    1
     2    19    20   am
     3    20    21    2
     4    20    17    1
     5    17     1    1
     6     1    23    1
     7    23    24    1
     8    24    25    1
     9    25    26   ar
    10    26    27   ar
    11    27    28   ar
    12    28    29    1
    13    28    30   ar
    14    30    31   ar
    15     1     2    1
    16     2     3    1
    17     3     4    1
    18     4     5    1
    19     5     8    1
    20     8     9   ar
    21     9    10   ar
    22    10    11    1
    23    10    12   ar
    24    12    13   ar
    25     5     6    1
    26     6     7    1
    27    31    25   ar
    28     7     2    1
    29    13     8   ar
    30    19    22    1
    31    11    14    1
    32    11    15    1
    33    13    16    1
@<TRIPOS>MOLECULE
*****
 31 33 0 0 0
SMALL
GASTEIGER

@<TRIPOS>ATOM
      1 N         138.9451  138.9165  163.1591 N.3     1  UNL1       -0.2659
      2 C         139.2677  139.2986  164.5733 C.3     1  UNL1        0.0614
      3 C         140.4824  140.1278  164.8678 C.3     1  UNL1        0.0375
      4 C         140.8050  140.5098  166.2820 C.3     1  UNL1        0.0950
      5 N         139.9128  140.0626  167.4018 N.pl3   1  UNL1       -0.2785
      6 C         138.6980  139.2333  167.1074 C.3     1  UNL1        0.0950
      7 C         138.3754  138.8513  165.6931 C.3     1  UNL1        0.0375
      8 C         140.2353  140.4446  168.8160 C.ar    1  UNL1        0.2163
      9 N         141.2722  141.4398  169.2459 N.ar    1  UNL1       -0.1804
     10 C         141.2553  141.5088  170.7442 C.ar    1  UNL1        0.2331
     11 N         142.1318  142.3777  171.5967 N.pl3   1  UNL1       -0.3262
     12 N         140.2081  140.5562  171.2404 N.ar    1  UNL1       -0.1354
     13 N         139.5778  139.8986  170.0486 N.ar    1  UNL1       -0.2450
     14 H         142.7931  142.9732  171.1758 H       1  UNL1        0.1452
     15 H         142.0456  142.3525  172.5771 H       1  UNL1        0.1452
     16 H         138.8587  139.2265  170.0715 H       1  UNL1        0.1919
     17 C         139.6462  137.7562  162.5171 C.3     1  UNL1        0.1584
     18 C         143.4983  137.8767  161.5701 C.3     1  UNL1        0.1107
     19 N         142.2368  137.6524  162.3501 N.am    1  UNL1       -0.3015
     20 C         140.9076  137.9805  161.7371 C.2     1  UNL1        0.2389
     21 O         140.8399  138.5328  160.3442 O.2     1  UNL1       -0.2736
     22 H         142.2813  137.2899  163.2643 H       1  UNL1        0.1495
     23 C         137.9214  139.6949  162.3868 C.3     1  UNL1        0.0772
     24 C         137.3391  140.9497  162.9667 C.3     1  UNL1        0.0437
     25 C         138.0185  142.2674  162.7377 C.ar    1  UNL1       -0.0207
     26 C         138.8300  142.4869  161.4954 C.ar    1  UNL1       -0.0034
     27 C         139.5093  143.8044  161.2664 C.ar    1  UNL1        0.0111
     28 C         139.3771  144.9025  162.2797 C.ar    1  UNL1        0.0577
     29 CL        140.0565  146.2202  162.0507 Cl      1  UNL1       -0.0822
     30 C         138.5656  144.6830  163.5220 C.ar    1  UNL1        0.0111
     31 C         137.8863  143.3655  163.7509 C.ar    1  UNL1       -0.0034
@<TRIPOS>BOND
     1    18    19    1
     2    19    20   am
     3    20    21    2
     4    20    17    1
     5    17     1    1
     6     1    23    1
     7    23    24    1
     8    24    25    1
     9    25    26   ar
    10    26    27   ar
    11    27    28   ar
    12    28    29    1
    13    28    30   ar
    14    30    31   ar
    15     1     2    1
    16     2     3    1
    17     3     4    1
    18     4     5    1
    19     5     8    1
    20     8     9   ar
    21     9    10   ar
    22    10    11    1
    23    10    12   ar
    24    12    13   ar
    25     5     6    1
    26     6     7    1
    27    31    25   ar
    28     7     2    1
    29    13     8   ar
    30    19    22    1
    31    11    14    1
    32    11    15    1
    33    13    16    1
@<TRIPOS>MOLECULE
*****
 31 33 0 0 0
SMALL
GASTEIGER

@<TRIPOS>ATOM
      1 N         138.2370  139.7975  163.3799 N.3     1  UNL1       -0.2659
      2 C         138.6973  140.0220  164.7898 C.3     1  UNL1        0.0614
      3 C         138.1414  139.1839  165.9027 C.3     1  UNL1        0.0375
      4 C         138.6017  139.4084  167.3126 C.3     1  UNL1        0.0950
      5 N         139.6179  140.4710  167.6095 N.pl3   1  UNL1       -0.2785
      6 C         140.1738  141.3092  166.4966 C.3     1  UNL1        0.0950
      7 C         139.7135  141.0847  165.0868 C.3     1  UNL1        0.0375
      8 C         140.0782  140.6955  169.0194 C.ar    1  UNL1        0.2163
      9 N         141.1416  141.6588  169.4569 N.ar    1  UNL1       -0.1804
     10 C         141.2765  141.5548  170.9472 C.ar    1  UNL1        0.2331
     11 N         142.2249  142.3404  171.8035 N.pl3   1  UNL1       -0.3262
     12 N         140.2966  140.5272  171.4308 N.ar    1  UNL1       -0.1354
     13 N         139.5560  139.9962  170.2393 N.ar    1  UNL1       -0.2450
     14 H         142.8330  142.9957  171.3912 H       1  UNL1        0.1452
     15 H         142.2393  142.2007  172.7780 H       1  UNL1        0.1452
     16 H         138.8510  139.3092  170.2552 H       1  UNL1        0.1919
     17 C         137.5260  140.8915  162.6399 C.3     1  UNL1        0.1584
     18 C         140.5219  142.4980  160.5921 C.3     1  UNL1        0.1107
     19 N         139.7476  141.5611  161.4711 N.am    1  UNL1       -0.3015
     20 C         138.3003  141.8284  161.7610 C.2     1  UNL1        0.2389
     21 O         137.6274  143.0326  161.1719 O.2     1  UNL1       -0.2736
     22 H         140.1893  140.7708  161.8577 H       1  UNL1        0.1495
     23 C         138.4876  138.4789  162.7101 C.3     1  UNL1        0.0772
     24 C         139.5240  137.5438  163.2592 C.3     1  UNL1        0.0437
     25 C         140.9152  138.0383  163.5244 C.ar    1  UNL1       -0.0207
     26 C         141.6833  138.7340  162.4400 C.ar    1  UNL1       -0.0034
     27 C         143.0744  139.2283  162.7053 C.ar    1  UNL1        0.0111
     28 C         143.6973  139.0270  164.0549 C.ar    1  UNL1        0.0577
     29 CL        145.0885  139.5214  164.3201 Cl      1  UNL1       -0.0822
     30 C         142.9292  138.3313  165.1392 C.ar    1  UNL1        0.0111
     31 C         141.5381  137.8369  164.8740 C.ar    1  UNL1       -0.0034
@<TRIPOS>BOND
     1    18    19    1
     2    19    20   am
     3    20    21    2
     4    20    17    1
     5    17     1    1
     6     1    23    1
     7    23    24    1
     8    24    25    1
     9    25    26   ar
    10    26    27   ar
    11    27    28   ar
    12    28    29    1
    13    28    30   ar
    14    30    31   ar
    15     1     2    1
    16     2     3    1
    17     3     4    1
    18     4     5    1
    19     5     8    1
    20     8     9   ar
    21     9    10   ar
    22    10    11    1
    23    10    12   ar
    24    12    13   ar
    25     5     6    1
    26     6     7    1
    27    31    25   ar
    28     7     2    1
    29    13     8   ar
    30    19    22    1
    31    11    14    1
    32    11    15    1
    33    13    16    1
@<TRIPOS>MOLECULE
*****
 31 33 0 0 0
SMALL
GASTEIGER

@<TRIPOS>ATOM
      1 N         144.0571  143.2943  164.0735 N.3     1  UNL1       -0.2659
      2 C         143.1484  142.9160  165.2053 C.3     1  UNL1        0.0614
      3 C         141.6862  142.6973  164.9523 C.3     1  UNL1        0.0375
      4 C         140.7775  142.3190  166.0841 C.3     1  UNL1        0.0950
      5 N         141.3310  142.1593  167.4691 N.pl3   1  UNL1       -0.2785
      6 C         142.7933  142.3780  167.7222 C.3     1  UNL1        0.0950
      7 C         143.7020  142.7563  166.5903 C.3     1  UNL1        0.0375
      8 C         140.4223  141.7810  168.6009 C.ar    1  UNL1        0.2163
      9 N         139.6071  140.5253  168.6952 N.ar    1  UNL1       -0.1804
     10 C         138.8502  140.5602  169.9898 C.ar    1  UNL1        0.2331
     11 N         137.9109  139.5035  170.4906 N.pl3   1  UNL1       -0.3262
     12 N         139.1977  141.8374  170.6956 N.ar    1  UNL1       -0.1354
     13 N         140.1693  142.5918  169.8373 N.ar    1  UNL1       -0.2450
     14 H         137.7464  138.6958  169.9522 H       1  UNL1        0.1452
     15 H         137.4588  139.6175  171.3577 H       1  UNL1        0.1452
     16 H         140.5705  143.4658  170.0483 H       1  UNL1        0.1919
     17 C         143.8789  144.6104  163.3763 C.3     1  UNL1        0.1584
     18 C         140.3266  145.8947  162.1589 C.3     1  UNL1        0.1107
     19 N         141.5290  145.6615  163.0248 N.am    1  UNL1       -0.3015
     20 C         142.6765  144.8436  162.5104 C.2     1  UNL1        0.2389
     21 O         142.6215  144.2590  161.1301 O.2     1  UNL1       -0.2736
     22 H         141.5651  146.0452  163.9307 H       1  UNL1        0.1495
     23 C         145.1442  142.3565  163.6387 C.3     1  UNL1        0.0772
     24 C         144.8218  141.2000  162.7395 C.3     1  UNL1        0.0437
     25 C         143.8773  140.1305  163.2024 C.ar    1  UNL1       -0.0207
     26 C         144.0226  139.5446  164.5756 C.ar    1  UNL1       -0.0034
     27 C         143.0782  138.4752  165.0384 C.ar    1  UNL1        0.0111
     28 C         141.9884  137.9917  164.1282 C.ar    1  UNL1        0.0577
     29 CL        141.0440  136.9222  164.5911 Cl      1  UNL1       -0.0822
     30 C         141.8431  138.5776  162.7551 C.ar    1  UNL1        0.0111
     31 C         142.7875  139.6470  162.2922 C.ar    1  UNL1       -0.0034
@<TRIPOS>BOND
     1    18    19    1
     2    19    20   am
     3    20    21    2
     4    20    17    1
     5    17     1    1
     6     1    23    1
     7    23    24    1
     8    24    25    1
     9    25    26   ar
    10    26    27   ar
    11    27    28   ar
    12    28    29    1
    13    28    30   ar
    14    30    31   ar
    15     1     2    1
    16     2     3    1
    17     3     4    1
    18     4     5    1
    19     5     8    1
    20     8     9   ar
    21     9    10   ar
    22    10    11    1
    23    10    12   ar
    24    12    13   ar
    25     5     6    1
    26     6     7    1
    27    31    25   ar
    28     7     2    1
    29    13     8   ar
    30    19    22    1
    31    11    14    1
    32    11    15    1
    33    13    16    1
@<TRIPOS>MOLECULE
*****
 31 33 0 0 0
SMALL
GASTEIGER

@<TRIPOS>ATOM
      1 N         139.0231  139.0640  164.1398 N.3     1  UNL1       -0.2659
      2 C         139.4860  139.9457  165.2616 C.3     1  UNL1        0.0614
      3 C         140.2005  141.2298  164.9603 C.3     1  UNL1        0.0375
      4 C         140.6634  142.1115  166.0821 C.3     1  UNL1        0.0950
      5 N         140.4118  141.7092  167.5050 N.pl3   1  UNL1       -0.2785
      6 C         139.6973  140.4251  167.8063 C.3     1  UNL1        0.0950
      7 C         139.2344  139.5434  166.6846 C.3     1  UNL1        0.0375
      8 C         140.8747  142.5909  168.6267 C.ar    1  UNL1        0.2163
      9 N         142.2188  142.5404  169.2908 N.ar    1  UNL1       -0.1804
     10 C         142.2496  143.5963  170.3559 C.ar    1  UNL1        0.2331
     11 N         143.4029  143.8963  171.2668 N.pl3   1  UNL1       -0.3262
     12 N         140.9246  144.2993  170.3500 N.ar    1  UNL1       -0.1354
     13 N         140.0749  143.6780  169.2813 N.ar    1  UNL1       -0.2450
     14 H         144.2360  143.3769  171.1937 H       1  UNL1        0.1452
     15 H         143.3268  144.6127  171.9378 H       1  UNL1        0.1452
     16 H         139.1539  143.9381  169.0502 H       1  UNL1        0.1919
     17 C         138.1808  139.6334  163.0370 C.3     1  UNL1        0.1584
     18 C         139.3395  138.9311  159.3068 C.3     1  UNL1        0.1107
     19 N         138.7499  138.7245  160.6705 N.am    1  UNL1       -0.3015
     20 C         138.7705  139.8399  161.6733 C.2     1  UNL1        0.2389
     21 O         139.3807  141.1618  161.3124 O.2     1  UNL1       -0.2736
     22 H         138.3494  137.8569  160.9073 H       1  UNL1        0.1495
     23 C         139.4025  137.6129  164.1210 C.3     1  UNL1        0.0772
     24 C         140.7063  137.1863  163.5143 C.3     1  UNL1        0.0437
     25 C         141.9205  138.0554  163.6581 C.ar    1  UNL1       -0.0207
     26 C         142.5156  138.7182  162.4513 C.ar    1  UNL1       -0.0034
     27 C         143.7297  139.5872  162.5952 C.ar    1  UNL1        0.0111
     28 C         144.3487  139.7934  163.9459 C.ar    1  UNL1        0.0577
     29 CL        145.5628  140.6625  164.0898 Cl      1  UNL1       -0.0822
     30 C         143.7535  139.1306  165.1527 C.ar    1  UNL1        0.0111
     31 C         142.5394  138.2616  165.0088 C.ar    1  UNL1       -0.0034
@<TRIPOS>BOND
     1    18    19    1
     2    19    20   am
     3    20    21    2
     4    20    17    1
     5    17     1    1
     6     1    23    1
     7    23    24    1
     8    24    25    1
     9    25    26   ar
    10    26    27   ar
    11    27    28   ar
    12    28    29    1
    13    28    30   ar
    14    30    31   ar
    15     1     2    1
    16     2     3    1
    17     3     4    1
    18     4     5    1
    19     5     8    1
    20     8     9   ar
    21     9    10   ar
    22    10    11    1
    23    10    12   ar
    24    12    13   ar
    25     5     6    1
    26     6     7    1
    27    31    25   ar
    28     7     2    1
    29    13     8   ar
    30    19    22    1
    31    11    14    1
    32    11    15    1
    33    13    16    1
@<TRIPOS>MOLECULE
*****
 31 33 0 0 0
SMALL
GASTEIGER

@<TRIPOS>ATOM
      1 N         139.0086  139.1819  164.0660 N.3     1  UNL1       -0.2659
      2 C         139.5429  139.7896  165.3290 C.3     1  UNL1        0.0614
      3 C         138.9418  139.4190  166.6523 C.3     1  UNL1        0.0375
      4 C         139.4762  140.0266  167.9153 C.3     1  UNL1        0.0950
      5 N         140.6117  141.0048  167.8550 N.pl3   1  UNL1       -0.2785
      6 C         141.2129  141.3755  166.5317 C.3     1  UNL1        0.0950
      7 C         140.6785  140.7678  165.2686 C.3     1  UNL1        0.0375
      8 C         141.1460  141.6125  169.1181 C.ar    1  UNL1        0.2163
      9 N         142.2247  142.6509  169.2092 N.ar    1  UNL1       -0.1804
     10 C         142.4408  142.9686  170.6592 C.ar    1  UNL1        0.2331
     11 N         143.4286  143.9551  171.2079 N.pl3   1  UNL1       -0.3262
     12 N         141.4958  142.1265  171.4642 N.ar    1  UNL1       -0.1354
     13 N         140.6956  141.2884  170.5117 N.ar    1  UNL1       -0.2450
     14 H         144.0087  144.4631  170.5958 H       1  UNL1        0.1452
     15 H         143.4967  144.0947  172.1801 H       1  UNL1        0.1452
     16 H         139.9974  140.6395  170.7579 H       1  UNL1        0.1919
     17 C         139.5567  137.8761  163.5716 C.3     1  UNL1        0.1584
     18 C         143.0953  137.8698  161.7750 C.3     1  UNL1        0.1107
     19 N         141.6208  138.0268  162.0010 N.am    1  UNL1       -0.3015
     20 C         141.0312  137.7191  163.3456 C.2     1  UNL1        0.2389
     21 O         141.9161  137.2545  164.4641 O.2     1  UNL1       -0.2736
     22 H         141.0400  138.3317  161.2669 H       1  UNL1        0.1495
     23 C         137.9261  139.8801  163.2973 C.3     1  UNL1        0.0772
     24 C         137.3961  141.1986  163.7777 C.3     1  UNL1        0.0437
     25 C         138.0657  142.4738  163.3583 C.ar    1  UNL1       -0.0207
     26 C         138.2199  143.5978  164.3395 C.ar    1  UNL1       -0.0034
     27 C         138.8894  144.8728  163.9201 C.ar    1  UNL1        0.0111
     28 C         139.4046  145.0239  162.5195 C.ar    1  UNL1        0.0577
     29 CL        140.0742  146.2991  162.1001 Cl      1  UNL1       -0.0822
     30 C         139.2504  143.8999  161.5383 C.ar    1  UNL1        0.0111
     31 C         138.5809  142.6249  161.9577 C.ar    1  UNL1       -0.0034
@<TRIPOS>BOND
     1    18    19    1
     2    19    20   am
     3    20    21    2
     4    20    17    1
     5    17     1    1
     6     1    23    1
     7    23    24    1
     8    24    25    1
     9    25    26   ar
    10    26    27   ar
    11    27    28   ar
    12    28    29    1
    13    28    30   ar
    14    30    31   ar
    15     1     2    1
    16     2     3    1
    17     3     4    1
    18     4     5    1
    19     5     8    1
    20     8     9   ar
    21     9    10   ar
    22    10    11    1
    23    10    12   ar
    24    12    13   ar
    25     5     6    1
    26     6     7    1
    27    31    25   ar
    28     7     2    1
    29    13     8   ar
    30    19    22    1
    31    11    14    1
    32    11    15    1
    33    13    16    1
@<TRIPOS>MOLECULE
*****
 31 33 0 0 0
SMALL
GASTEIGER

@<TRIPOS>ATOM
      1 N         142.8644  139.2180  162.6570 N.3     1  UNL1       -0.2659
      2 C         142.8052  139.7531  164.0571 C.3     1  UNL1        0.0614
      3 C         142.6002  141.2205  164.2912 C.3     1  UNL1        0.0375
      4 C         142.5410  141.7555  165.6912 C.3     1  UNL1        0.0950
      5 N         142.6869  140.8233  166.8572 N.pl3   1  UNL1       -0.2785
      6 C         142.8920  139.3559  166.6232 C.3     1  UNL1        0.0950
      7 C         142.9511  138.8208  165.2231 C.3     1  UNL1        0.0375
      8 C         142.6277  141.3584  168.2573 C.ar    1  UNL1        0.2163
      9 N         143.3192  142.5910  168.7600 N.ar    1  UNL1       -0.1804
     10 C         142.9855  142.7492  170.2139 C.ar    1  UNL1        0.2331
     11 N         143.4653  143.8491  171.1139 N.pl3   1  UNL1       -0.3262
     12 N         142.0879  141.6145  170.6097 N.ar    1  UNL1       -0.1354
     13 N         141.8667  140.7549  169.4004 N.ar    1  UNL1       -0.2450
     14 H         144.0553  144.5530  170.7596 H       1  UNL1        0.1452
     15 H         143.1902  143.8670  172.0591 H       1  UNL1        0.1452
     16 H         141.3184  139.9381  169.3635 H       1  UNL1        0.1919
     17 C         144.1164  139.3757  161.8461 C.3     1  UNL1        0.1584
     18 C         143.9097  140.2372  157.9776 C.3     1  UNL1        0.1107
     19 N         143.9377  139.4518  159.2553 N.am    1  UNL1       -0.3015
     20 C         144.0885  140.1611  160.5685 C.2     1  UNL1        0.2389
     21 O         144.2113  141.6556  160.6039 O.2     1  UNL1       -0.2736
     22 H         143.8570  138.4709  159.2320 H       1  UNL1        0.1495
     23 C         141.6715  138.5252  162.0679 C.3     1  UNL1        0.0772
     24 C         140.3022  139.1127  162.2400 C.3     1  UNL1        0.0437
     25 C         139.5708  138.9425  163.5386 C.ar    1  UNL1       -0.0207
     26 C         138.9571  140.1322  164.2153 C.ar    1  UNL1       -0.0034
     27 C         138.2258  139.9619  165.5138 C.ar    1  UNL1        0.0111
     28 C         138.1082  138.6020  166.1356 C.ar    1  UNL1        0.0577
     29 CL        137.3768  138.4317  167.4342 Cl      1  UNL1       -0.0822
     30 C         138.7219  137.4123  165.4590 C.ar    1  UNL1        0.0111
     31 C         139.4532  137.5825  164.1605 C.ar    1  UNL1       -0.0034
@<TRIPOS>BOND
     1    18    19    1
     2    19    20   am
     3    20    21    2
     4    20    17    1
     5    17     1    1
     6     1    23    1
     7    23    24    1
     8    24    25    1
     9    25    26   ar
    10    26    27   ar
    11    27    28   ar
    12    28    29    1
    13    28    30   ar
    14    30    31   ar
    15     1     2    1
    16     2     3    1
    17     3     4    1
    18     4     5    1
    19     5     8    1
    20     8     9   ar
    21     9    10   ar
    22    10    11    1
    23    10    12   ar
    24    12    13   ar
    25     5     6    1
    26     6     7    1
    27    31    25   ar
    28     7     2    1
    29    13     8   ar
    30    19    22    1
    31    11    14    1
    32    11    15    1
    33    13    16    1
@<TRIPOS>MOLECULE
*****
 31 33 0 0 0
SMALL
GASTEIGER

@<TRIPOS>ATOM
      1 N         141.1626  140.4957  167.2704 N.3     1  UNL1       -0.2659
      2 C         140.9381  141.4512  166.1361 C.3     1  UNL1        0.0614
      3 C         139.6785  141.3704  165.3256 C.3     1  UNL1        0.0375
      4 C         139.4540  142.3258  164.1912 C.3     1  UNL1        0.0950
      5 N         140.4891  143.3620  163.8673 N.pl3   1  UNL1       -0.2785
      6 C         141.7487  143.4428  164.6778 C.3     1  UNL1        0.0950
      7 C         141.9732  142.4874  165.8122 C.3     1  UNL1        0.0375
      8 C         140.2646  144.3174  162.7330 C.ar    1  UNL1        0.2163
      9 N         140.6248  144.0805  161.2962 N.ar    1  UNL1       -0.1804
     10 C         140.2233  145.2942  160.5115 C.ar    1  UNL1        0.2331
     11 N         140.3992  145.4870  159.0344 N.pl3   1  UNL1       -0.3262
     12 N         139.6149  146.2812  161.4632 N.ar    1  UNL1       -0.1354
     13 N         139.6405  145.6775  162.8361 N.ar    1  UNL1       -0.2450
     14 H         140.8117  144.7771  158.4910 H       1  UNL1        0.1452
     15 H         140.1022  146.3233  158.6083 H       1  UNL1        0.1452
     16 H         139.3063  146.0998  163.6603 H       1  UNL1        0.1919
     17 C         140.0049  140.0428  168.1098 C.3     1  UNL1        0.1584
     18 C         139.7394  142.9167  170.8338 C.3     1  UNL1        0.1107
     19 N         140.0670  142.1989  169.5582 N.am    1  UNL1       -0.3015
     20 C         139.6773  140.7606  169.3855 C.2     1  UNL1        0.2389
     21 O         138.9601  140.0403  170.4885 O.2     1  UNL1       -0.2736
     22 H         140.5378  142.6716  168.8342 H       1  UNL1        0.1495
     23 C         142.5448  139.9932  167.5654 C.3     1  UNL1        0.0772
     24 C         143.0739  138.7877  166.8465 C.3     1  UNL1        0.0437
     25 C         143.2896  138.8339  165.3628 C.ar    1  UNL1       -0.0207
     26 C         144.4566  139.5880  164.7977 C.ar    1  UNL1       -0.0034
     27 C         144.6722  139.6341  163.3140 C.ar    1  UNL1        0.0111
     28 C         143.7209  138.9261  162.3955 C.ar    1  UNL1        0.0577
     29 CL        143.9367  138.9723  160.9117 Cl      1  UNL1       -0.0822
     30 C         142.5540  138.1720  162.9606 C.ar    1  UNL1        0.0111
     31 C         142.3383  138.1258  164.4442 C.ar    1  UNL1       -0.0034
@<TRIPOS>BOND
     1    18    19    1
     2    19    20   am
     3    20    21    2
     4    20    17    1
     5    17     1    1
     6     1    23    1
     7    23    24    1
     8    24    25    1
     9    25    26   ar
    10    26    27   ar
    11    27    28   ar
    12    28    29    1
    13    28    30   ar
    14    30    31   ar
    15     1     2    1
    16     2     3    1
    17     3     4    1
    18     4     5    1
    19     5     8    1
    20     8     9   ar
    21     9    10   ar
    22    10    11    1
    23    10    12   ar
    24    12    13   ar
    25     5     6    1
    26     6     7    1
    27    31    25   ar
    28     7     2    1
    29    13     8   ar
    30    19    22    1
    31    11    14    1
    32    11    15    1
    33    13    16    1
