@<TRIPOS>MOLECULE
*****
 41 45 0 0 0
SMALL
GASTEIGER

@<TRIPOS>ATOM
      1 C         139.9290  143.6302  161.0096 C.ar    1  UNL1        0.0655
      2 C         139.0630  142.6392  161.7293 C.ar    1  UNL1        0.0337
      3 C         138.2860  141.6184  160.9520 C.ar    1  UNL1        0.0862
      4 C         138.3749  141.5885  159.4550 C.ar    1  UNL1        0.1534
      5 C         139.2409  142.5795  158.7353 C.ar    1  UNL1        0.0539
      6 C         140.0179  143.6003  159.5126 C.ar    1  UNL1        0.0647
      7 C         141.8869  144.2277  162.6094 C.2     1  UNL1        0.2497
      8 O         142.2796  143.2136  162.7241 O.2     1  UNL1       -0.2698
      9 N         140.7061  144.6509  161.7869 N.am    1  UNL1       -0.2794
     10 H         140.4410  145.5986  161.7573 H       1  UNL1        0.1552
     11 C         143.8434  144.8250  164.2112 C.2     1  UNL1        0.0048
     12 C         142.6640  145.2485  163.3867 C.2     1  UNL1        0.0580
     13 N         137.4200  140.6274  161.6718 N.pl3   1  UNL1       -0.2801
     14 H         136.4541  140.5907  161.4849 H       1  UNL1        0.1552
     15 C         138.0257  139.6924  162.6763 C.ar    1  UNL1        0.2207
     16 N         138.1710  138.2351  162.3521 N.ar    1  UNL1       -0.2120
     17 C         138.7767  137.3001  163.3565 C.ar    1  UNL1        0.1034
     18 C         139.2370  137.8224  164.6852 C.ar    1  UNL1        0.0400
     19 C         139.0917  139.2798  165.0094 C.ar    1  UNL1        0.0872
     20 N         138.4860  140.2147  164.0049 N.ar    1  UNL1       -0.2135
     21 C         139.5520  139.8021  166.3380 C.ar    1  UNL1        0.0364
     22 C         138.8629  139.5939  167.6540 C.ar    1  UNL1        0.0774
     23 N         139.6673  140.2874  168.7132 N.ar    1  UNL1       -0.3263
     24 C         140.8535  140.9243  168.0518 C.ar    1  UNL1        0.0559
     25 C         141.9893  141.7386  168.5967 C.ar    1  UNL1       -0.0063
     26 C         143.0539  142.2529  167.6736 C.ar    1  UNL1       -0.0028
     27 C         142.9826  141.9529  166.2056 C.ar    1  UNL1       -0.0002
     28 C         141.8468  141.1386  165.6608 C.ar    1  UNL1        0.0015
     29 C         140.7822  140.6243  166.5839 C.ar    1  UNL1        0.0184
     30 C         141.8066  141.8812  170.0855 C.3     1  UNL1        0.0298
     31 C         140.6750  141.3024  170.8822 C.3     1  UNL1        0.0292
     32 C         139.6053  140.5055  170.1960 C.3     1  UNL1        0.1064
     33 O         137.5979  140.5678  158.6777 O.3     1  UNL1       -0.4701
     34 C         137.5820  140.6193  157.1787 C.3     1  UNL1        0.2525
     35 N         140.8840  144.5912  158.7927 N.pl3   1  UNL1       -0.3033
     36 C         140.5915  145.5816  158.4329 C.3     1  UNL1        0.1123
     37 C         142.3171  144.2604  158.4983 C.3     1  UNL1        0.1082
     38 C         142.8394  142.8808  158.7703 C.3     1  UNL1        0.0938
     39 N         144.2971  142.6740  159.0574 N.3     1  UNL1       -0.2688
     40 C         144.7832  142.6300  160.4758 C.3     1  UNL1        0.0897
     41 C         145.2686  142.5111  157.9262 C.3     1  UNL1        0.0897
@<TRIPOS>BOND
     1    11    12    2
     2    12     7    1
     3     7     8    2
     4     7     9   am
     5     9     1    1
     6     1     2   ar
     7     2     3   ar
     8     3    13    1
     9    13    15    1
    10    15    16   ar
    11    16    17   ar
    12    17    18   ar
    13    18    19   ar
    14    19    21    1
    15    21    22   ar
    16    22    23   ar
    17    23    24   ar
    18    24    25   ar
    19    25    26   ar
    20    26    27   ar
    21    27    28   ar
    22    28    29   ar
    23    25    30    1
    24    30    31    1
    25    31    32    1
    26    19    20   ar
    27     3     4   ar
    28     4    33    1
    29    33    34    1
    30     4     5   ar
    31     5     6   ar
    32     6    35    1
    33    35    36    1
    34    35    37    1
    35    37    38    1
    36    38    39    1
    37    39    40    1
    38    39    41    1
    39     6     1   ar
    40    20    15   ar
    41    29    21   ar
    42    32    23    1
    43    29    24   ar
    44     9    10    1
    45    13    14    1
@<TRIPOS>MOLECULE
*****
 41 45 0 0 0
SMALL
GASTEIGER

@<TRIPOS>ATOM
      1 C         140.8332  143.5304  160.7110 C.ar    1  UNL1        0.0655
      2 C         139.8134  142.7589  161.4951 C.ar    1  UNL1        0.0337
      3 C         138.8068  141.9060  160.7815 C.ar    1  UNL1        0.0862
      4 C         138.8198  141.8246  159.2838 C.ar    1  UNL1        0.1534
      5 C         139.8395  142.5961  158.4997 C.ar    1  UNL1        0.0539
      6 C         140.8462  143.4490  159.2133 C.ar    1  UNL1        0.0647
      7 C         143.0229  143.7471  162.0923 C.2     1  UNL1        0.2497
      8 O         143.2628  142.6810  162.1299 O.2     1  UNL1       -0.2698
      9 N         141.8399  144.3832  161.4245 N.am    1  UNL1       -0.2794
     10 H         141.7241  145.3605  161.4546 H       1  UNL1        0.1552
     11 C         143.7496  145.0855  164.1972 C.2     1  UNL1        0.0048
     12 C         144.0296  144.6000  162.8059 C.2     1  UNL1        0.0580
     13 N         137.7870  141.1345  161.5656 N.pl3   1  UNL1       -0.2801
     14 H         136.8274  141.3073  161.4294 H       1  UNL1        0.1552
     15 C         138.2293  140.0997  162.5575 C.ar    1  UNL1        0.2207
     16 N         138.2039  138.6464  162.1869 N.ar    1  UNL1       -0.2120
     17 C         138.6462  137.6117  163.1787 C.ar    1  UNL1        0.1034
     18 C         139.1139  138.0302  164.5411 C.ar    1  UNL1        0.0400
     19 C         139.1393  139.4835  164.9117 C.ar    1  UNL1        0.0872
     20 N         138.6970  140.5182  163.9199 N.ar    1  UNL1       -0.2135
     21 C         139.6070  139.9020  166.2741 C.ar    1  UNL1        0.0364
     22 C         138.9285  139.5876  167.5743 C.ar    1  UNL1        0.0774
     23 N         139.7375  140.1997  168.6792 N.ar    1  UNL1       -0.3263
     24 C         140.9161  140.8925  168.0618 C.ar    1  UNL1        0.0559
     25 C         142.0522  141.6670  168.6611 C.ar    1  UNL1       -0.0063
     26 C         143.1077  142.2576  167.7739 C.ar    1  UNL1       -0.0028
     27 C         143.0271  142.0736  166.2875 C.ar    1  UNL1       -0.0002
     28 C         141.8909  141.2990  165.6882 C.ar    1  UNL1        0.0015
     29 C         140.8354  140.7085  166.5753 C.ar    1  UNL1        0.0184
     30 C         141.8798  141.6913  170.1577 C.3     1  UNL1        0.0298
     31 C         140.7565  141.0461  170.9142 C.3     1  UNL1        0.0292
     32 C         139.6854  140.3003  170.1749 C.3     1  UNL1        0.1064
     33 O         137.8131  140.9718  158.5702 O.3     1  UNL1       -0.4701
     34 C         137.4887  141.2402  157.1305 C.3     1  UNL1        0.2525
     35 N         141.8659  144.2205  158.4290 N.pl3   1  UNL1       -0.3033
     36 C         142.8380  143.8608  158.0804 C.3     1  UNL1        0.1123
     37 C         141.5955  145.6447  158.0437 C.3     1  UNL1        0.1082
     38 C         141.3266  145.9958  156.6104 C.3     1  UNL1        0.0938
     39 N         139.9161  146.0456  156.1024 N.3     1  UNL1       -0.2688
     40 C         139.2900  144.8200  155.5059 C.3     1  UNL1        0.0897
     41 C         139.1317  147.3211  156.1908 C.3     1  UNL1        0.0897
@<TRIPOS>BOND
     1    11    12    2
     2    12     7    1
     3     7     8    2
     4     7     9   am
     5     9     1    1
     6     1     2   ar
     7     2     3   ar
     8     3    13    1
     9    13    15    1
    10    15    16   ar
    11    16    17   ar
    12    17    18   ar
    13    18    19   ar
    14    19    21    1
    15    21    22   ar
    16    22    23   ar
    17    23    24   ar
    18    24    25   ar
    19    25    26   ar
    20    26    27   ar
    21    27    28   ar
    22    28    29   ar
    23    25    30    1
    24    30    31    1
    25    31    32    1
    26    19    20   ar
    27     3     4   ar
    28     4    33    1
    29    33    34    1
    30     4     5   ar
    31     5     6   ar
    32     6    35    1
    33    35    36    1
    34    35    37    1
    35    37    38    1
    36    38    39    1
    37    39    40    1
    38    39    41    1
    39     6     1   ar
    40    20    15   ar
    41    29    21   ar
    42    32    23    1
    43    29    24   ar
    44     9    10    1
    45    13    14    1
@<TRIPOS>MOLECULE
*****
 41 45 0 0 0
SMALL
GASTEIGER

@<TRIPOS>ATOM
      1 C         143.2078  142.6307  159.7598 C.ar    1  UNL1        0.0655
      2 C         142.4420  143.4723  160.7371 C.ar    1  UNL1        0.0337
      3 C         141.6233  144.6306  160.2493 C.ar    1  UNL1        0.0862
      4 C         141.5703  144.9474  158.7841 C.ar    1  UNL1        0.1534
      5 C         142.3361  144.1058  157.8067 C.ar    1  UNL1        0.0539
      6 C         143.1548  142.9475  158.2946 C.ar    1  UNL1        0.0647
      7 C         143.3586  140.1741  160.5919 C.2     1  UNL1        0.2497
      8 O         142.2907  139.9469  160.5306 O.2     1  UNL1       -0.2698
      9 N         144.0265  141.4724  160.2476 N.am    1  UNL1       -0.2794
     10 H         145.0022  141.5642  160.3419 H       1  UNL1        0.1552
     11 C         143.5907  137.6353  161.0925 C.2     1  UNL1        0.0048
     12 C         144.1773  139.0158  161.0797 C.2     1  UNL1        0.0580
     13 N         140.8575  145.4722  161.2266 N.pl3   1  UNL1       -0.2801
     14 H         140.9191  146.4539  161.1851 H       1  UNL1        0.1552
     15 C         139.9976  144.8181  162.2673 C.ar    1  UNL1        0.2207
     16 N         138.5064  144.9713  162.2126 N.ar    1  UNL1       -0.2120
     17 C         137.6467  144.3172  163.2532 C.ar    1  UNL1        0.1034
     18 C         138.2780  143.5099  164.3485 C.ar    1  UNL1        0.0400
     19 C         139.7692  143.3566  164.4032 C.ar    1  UNL1        0.0872
     20 N         140.6289  144.0107  163.3625 N.ar    1  UNL1       -0.2135
     21 C         140.4005  142.5493  165.4984 C.ar    1  UNL1        0.0364
     22 C         140.4341  142.9115  166.9536 C.ar    1  UNL1        0.0774
     23 N         141.1635  141.8241  167.6853 N.ar    1  UNL1       -0.3263
     24 C         141.5807  140.7897  166.6823 C.ar    1  UNL1        0.0559
     25 C         142.3291  139.4976  166.8250 C.ar    1  UNL1       -0.0063
     26 C         142.6059  138.6537  165.6163 C.ar    1  UNL1       -0.0028
     27 C         142.1344  139.1019  164.2647 C.ar    1  UNL1       -0.0002
     28 C         141.3860  140.3940  164.1220 C.ar    1  UNL1        0.0015
     29 C         141.1092  141.2379  165.3307 C.ar    1  UNL1        0.0184
     30 C         142.6755  139.3017  168.2783 C.3     1  UNL1        0.0298
     31 C         142.3265  140.2461  169.3904 C.3     1  UNL1        0.0292
     32 C         141.5705  141.5072  169.0938 C.3     1  UNL1        0.1064
     33 O         140.7516  146.1057  158.2962 O.3     1  UNL1       -0.4701
     34 C         139.9238  145.9681  157.0530 C.3     1  UNL1        0.2525
     35 N         143.9206  142.1059  157.3172 N.pl3   1  UNL1       -0.3033
     36 C         144.9717  142.2157  157.0361 C.3     1  UNL1        0.1123
     37 C         143.2400  140.9725  156.6086 C.3     1  UNL1        0.1082
     38 C         143.5344  139.5558  157.0041 C.3     1  UNL1        0.0938
     39 N         144.0343  138.5800  155.9806 N.3     1  UNL1       -0.2688
     40 C         143.5086  137.1752  155.9641 C.3     1  UNL1        0.0897
     41 C         145.0600  139.0087  154.9736 C.3     1  UNL1        0.0897
@<TRIPOS>BOND
     1    11    12    2
     2    12     7    1
     3     7     8    2
     4     7     9   am
     5     9     1    1
     6     1     2   ar
     7     2     3   ar
     8     3    13    1
     9    13    15    1
    10    15    16   ar
    11    16    17   ar
    12    17    18   ar
    13    18    19   ar
    14    19    21    1
    15    21    22   ar
    16    22    23   ar
    17    23    24   ar
    18    24    25   ar
    19    25    26   ar
    20    26    27   ar
    21    27    28   ar
    22    28    29   ar
    23    25    30    1
    24    30    31    1
    25    31    32    1
    26    19    20   ar
    27     3     4   ar
    28     4    33    1
    29    33    34    1
    30     4     5   ar
    31     5     6   ar
    32     6    35    1
    33    35    36    1
    34    35    37    1
    35    37    38    1
    36    38    39    1
    37    39    40    1
    38    39    41    1
    39     6     1   ar
    40    20    15   ar
    41    29    21   ar
    42    32    23    1
    43    29    24   ar
    44     9    10    1
    45    13    14    1
@<TRIPOS>MOLECULE
*****
 41 45 0 0 0
SMALL
GASTEIGER

@<TRIPOS>ATOM
      1 C         141.8810  142.1569  158.7472 C.ar    1  UNL1        0.0655
      2 C         141.5926  143.2809  159.6978 C.ar    1  UNL1        0.0337
      3 C         142.5600  143.5985  160.7992 C.ar    1  UNL1        0.0862
      4 C         143.8158  142.7923  160.9502 C.ar    1  UNL1        0.1534
      5 C         144.1042  141.6683  159.9997 C.ar    1  UNL1        0.0539
      6 C         143.1368  141.3506  158.8982 C.ar    1  UNL1        0.0647
      7 C         139.6131  141.1618  157.9621 C.2     1  UNL1        0.2497
      8 O         139.2559  140.8504  158.9475 O.2     1  UNL1       -0.2698
      9 N         140.9136  141.8392  157.6458 N.am    1  UNL1       -0.2794
     10 H         141.1321  142.0753  156.7154 H       1  UNL1        0.1552
     11 C         137.1805  141.1019  157.0518 C.2     1  UNL1        0.0048
     12 C         138.6457  140.8441  156.8606 C.2     1  UNL1        0.0580
     13 N         142.2716  144.7225  161.7498 N.pl3   1  UNL1       -0.2801
     14 H         142.7187  145.5920  161.6340 H       1  UNL1        0.1552
     15 C         141.3021  144.5217  162.8767 C.ar    1  UNL1        0.2207
     16 N         139.9780  145.2263  162.8614 N.ar    1  UNL1       -0.2120
     17 C         139.0085  145.0254  163.9882 C.ar    1  UNL1        0.1034
     18 C         139.3632  144.1200  165.1303 C.ar    1  UNL1        0.0400
     19 C         140.6873  143.4154  165.1456 C.ar    1  UNL1        0.0872
     20 N         141.6567  143.6163  164.0188 N.ar    1  UNL1       -0.2135
     21 C         141.0419  142.5100  166.2878 C.ar    1  UNL1        0.0364
     22 C         140.6790  142.7233  167.7275 C.ar    1  UNL1        0.0774
     23 N         141.2345  141.5775  168.5202 N.ar    1  UNL1       -0.3263
     24 C         141.9408  140.6560  167.5703 C.ar    1  UNL1        0.0559
     25 C         142.6769  139.3665  167.7836 C.ar    1  UNL1       -0.0063
     26 C         143.2939  138.6534  166.6171 C.ar    1  UNL1       -0.0028
     27 C         143.1749  139.2298  165.2374 C.ar    1  UNL1       -0.0002
     28 C         142.4388  140.5192  165.0242 C.ar    1  UNL1        0.0015
     29 C         141.8217  141.2323  166.1906 C.ar    1  UNL1        0.0184
     30 C         142.6386  139.0292  169.2516 C.3     1  UNL1        0.0298
     31 C         141.9733  139.8510  170.3156 C.3     1  UNL1        0.0292
     32 C         141.2713  141.1251  169.9499 C.3     1  UNL1        0.1064
     33 O         144.7832  143.1099  162.0516 O.3     1  UNL1       -0.4701
     34 C         145.2589  142.0225  162.9688 C.3     1  UNL1        0.2525
     35 N         143.4253  140.2266  157.9477 N.pl3   1  UNL1       -0.3033
     36 C         143.9263  140.2968  156.9782 C.3     1  UNL1        0.1123
     37 C         143.0126  138.8267  158.2941 C.3     1  UNL1        0.1082
     38 C         141.9907  138.5897  159.3663 C.3     1  UNL1        0.0938
     39 N         142.4282  138.1873  160.7435 N.3     1  UNL1       -0.2688
     40 C         141.4060  137.9421  161.8135 C.3     1  UNL1        0.0897
     41 C         143.8880  138.0301  161.0508 C.3     1  UNL1        0.0897
@<TRIPOS>BOND
     1    11    12    2
     2    12     7    1
     3     7     8    2
     4     7     9   am
     5     9     1    1
     6     1     2   ar
     7     2     3   ar
     8     3    13    1
     9    13    15    1
    10    15    16   ar
    11    16    17   ar
    12    17    18   ar
    13    18    19   ar
    14    19    21    1
    15    21    22   ar
    16    22    23   ar
    17    23    24   ar
    18    24    25   ar
    19    25    26   ar
    20    26    27   ar
    21    27    28   ar
    22    28    29   ar
    23    25    30    1
    24    30    31    1
    25    31    32    1
    26    19    20   ar
    27     3     4   ar
    28     4    33    1
    29    33    34    1
    30     4     5   ar
    31     5     6   ar
    32     6    35    1
    33    35    36    1
    34    35    37    1
    35    37    38    1
    36    38    39    1
    37    39    40    1
    38    39    41    1
    39     6     1   ar
    40    20    15   ar
    41    29    21   ar
    42    32    23    1
    43    29    24   ar
    44     9    10    1
    45    13    14    1
@<TRIPOS>MOLECULE
*****
 41 45 0 0 0
SMALL
GASTEIGER

@<TRIPOS>ATOM
      1 C         140.4127  144.9019  157.9268 C.ar    1  UNL1        0.0655
      2 C         140.9056  145.4187  159.2459 C.ar    1  UNL1        0.0337
      3 C         140.5120  144.7264  160.5171 C.ar    1  UNL1        0.0862
      4 C         139.6255  143.5174  160.4692 C.ar    1  UNL1        0.1534
      5 C         139.1327  143.0006  159.1501 C.ar    1  UNL1        0.0539
      6 C         139.5263  143.6929  157.8790 C.ar    1  UNL1        0.0647
      7 C         139.9100  146.6409  156.0632 C.2     1  UNL1        0.2497
      8 O         138.9509  146.9865  156.4586 O.2     1  UNL1       -0.2698
      9 N         140.8063  145.5942  156.6557 N.am    1  UNL1       -0.2794
     10 H         141.6529  145.3615  156.2103 H       1  UNL1        0.1552
     11 C         139.7267  148.6775  154.4605 C.2     1  UNL1        0.0048
     12 C         140.3036  147.3331  154.7921 C.2     1  UNL1        0.0580
     13 N         141.0048  145.2432  161.8362 N.pl3   1  UNL1       -0.2801
     14 H         140.6213  146.0662  162.2168 H       1  UNL1        0.1552
     15 C         142.0821  144.5062  162.5753 C.ar    1  UNL1        0.2207
     16 N         143.4711  144.4452  162.0122 N.ar    1  UNL1       -0.2120
     17 C         144.5483  143.7082  162.7514 C.ar    1  UNL1        0.1034
     18 C         144.2366  143.0321  164.0536 C.ar    1  UNL1        0.0400
     19 C         142.8476  143.0930  164.6167 C.ar    1  UNL1        0.0872
     20 N         141.7704  143.8300  163.8775 N.ar    1  UNL1       -0.2135
     21 C         142.5359  142.4169  165.9188 C.ar    1  UNL1        0.0364
     22 C         143.3602  142.4903  167.1699 C.ar    1  UNL1        0.0774
     23 N         142.6789  141.6674  168.2228 N.ar    1  UNL1       -0.3263
     24 C         141.4335  141.0854  167.6225 C.ar    1  UNL1        0.0559
     25 C         140.3686  140.1935  168.1885 C.ar    1  UNL1       -0.0063
     26 C         139.2153  139.7648  167.3306 C.ar    1  UNL1       -0.0028
     27 C         139.1269  140.2280  165.9066 C.ar    1  UNL1       -0.0002
     28 C         140.1919  141.1199  165.3406 C.ar    1  UNL1        0.0015
     29 C         141.3452  141.5486  166.1985 C.ar    1  UNL1        0.0184
     30 C         140.7105  139.8892  169.6240 C.3     1  UNL1        0.0298
     31 C         141.9164  140.3974  170.3572 C.3     1  UNL1        0.0292
     32 C         142.9006  141.2865  169.6566 C.3     1  UNL1        0.1064
     33 O         139.2319  142.8251  161.7404 O.3     1  UNL1       -0.4701
     34 C         137.8831  143.0786  162.3457 C.3     1  UNL1        0.2525
     35 N         139.0333  143.1760  156.5599 N.pl3   1  UNL1       -0.3033
     36 C         139.6077  142.6170  155.8159 C.3     1  UNL1        0.1123
     37 C         137.6110  143.4117  156.1461 C.3     1  UNL1        0.1082
     38 C         136.6320  142.2752  156.1451 C.3     1  UNL1        0.0938
     39 N         135.7703  142.0287  154.9424 N.3     1  UNL1       -0.2688
     40 C         136.2224  142.4900  153.5885 C.3     1  UNL1        0.0897
     41 C         134.4564  141.3210  155.0933 C.3     1  UNL1        0.0897
@<TRIPOS>BOND
     1    11    12    2
     2    12     7    1
     3     7     8    2
     4     7     9   am
     5     9     1    1
     6     1     2   ar
     7     2     3   ar
     8     3    13    1
     9    13    15    1
    10    15    16   ar
    11    16    17   ar
    12    17    18   ar
    13    18    19   ar
    14    19    21    1
    15    21    22   ar
    16    22    23   ar
    17    23    24   ar
    18    24    25   ar
    19    25    26   ar
    20    26    27   ar
    21    27    28   ar
    22    28    29   ar
    23    25    30    1
    24    30    31    1
    25    31    32    1
    26    19    20   ar
    27     3     4   ar
    28     4    33    1
    29    33    34    1
    30     4     5   ar
    31     5     6   ar
    32     6    35    1
    33    35    36    1
    34    35    37    1
    35    37    38    1
    36    38    39    1
    37    39    40    1
    38    39    41    1
    39     6     1   ar
    40    20    15   ar
    41    29    21   ar
    42    32    23    1
    43    29    24   ar
    44     9    10    1
    45    13    14    1
@<TRIPOS>MOLECULE
*****
 41 45 0 0 0
SMALL
GASTEIGER

@<TRIPOS>ATOM
      1 C         138.7051  140.2788  158.3743 C.ar    1  UNL1        0.0655
      2 C         138.1104  139.8946  159.6967 C.ar    1  UNL1        0.0337
      3 C         137.8975  140.9367  160.7544 C.ar    1  UNL1        0.0862
      4 C         138.2792  142.3629  160.4897 C.ar    1  UNL1        0.1534
      5 C         138.8738  142.7471  159.1673 C.ar    1  UNL1        0.0539
      6 C         139.0868  141.7050  158.1096 C.ar    1  UNL1        0.0647
      7 C         140.2157  138.4871  157.2528 C.2     1  UNL1        0.2497
      8 O         141.0781  138.6068  157.9144 O.2     1  UNL1       -0.2698
      9 N         138.9180  139.2367  157.3166 N.am    1  UNL1       -0.2794
     10 H         138.2060  139.0447  156.6643 H       1  UNL1        0.1552
     11 C         141.4927  136.4027  156.3726 C.2     1  UNL1        0.0048
     12 C         140.4287  137.4450  156.1952 C.2     1  UNL1        0.0580
     13 N         137.3029  140.5526  162.0769 N.pl3   1  UNL1       -0.2801
     14 H         136.4024  140.8664  162.3215 H       1  UNL1        0.1552
     15 C         138.0803  139.6901  163.0267 C.ar    1  UNL1        0.2207
     16 N         138.3669  138.2597  162.6778 N.ar    1  UNL1       -0.2120
     17 C         139.1443  137.3974  163.6275 C.ar    1  UNL1        0.1034
     18 C         139.6351  137.9655  164.9261 C.ar    1  UNL1        0.0400
     19 C         139.3485  139.3959  165.2750 C.ar    1  UNL1        0.0872
     20 N         138.5711  140.2582  164.3253 N.ar    1  UNL1       -0.2135
     21 C         139.8393  139.9640  166.5736 C.ar    1  UNL1        0.0364
     22 C         139.1888  139.7901  167.9140 C.ar    1  UNL1        0.0774
     23 N         140.0142  140.5244  168.9286 N.ar    1  UNL1       -0.3263
     24 C         141.1750  141.1520  168.2153 C.ar    1  UNL1        0.0559
     25 C         142.3165  141.9941  168.7030 C.ar    1  UNL1       -0.0063
     26 C         143.3498  142.4899  167.7354 C.ar    1  UNL1       -0.0028
     27 C         143.2416  142.1436  166.2800 C.ar    1  UNL1       -0.0002
     28 C         142.1002  141.3015  165.7922 C.ar    1  UNL1        0.0015
     29 C         141.0669  140.8057  166.7598 C.ar    1  UNL1        0.0184
     30 C         142.1730  142.1814  170.1912 C.3     1  UNL1        0.0298
     31 C         141.0699  141.6166  171.0364 C.3     1  UNL1        0.0292
     32 C         139.9905  140.7881  170.4050 C.3     1  UNL1        0.1064
     33 O         138.0663  143.4050  161.5474 O.3     1  UNL1       -0.4701
     34 C         139.2269  143.8957  162.3613 C.3     1  UNL1        0.2525
     35 N         139.6814  142.0892  156.7872 N.pl3   1  UNL1       -0.3033
     36 C         140.7401  142.0779  156.5135 C.3     1  UNL1        0.1123
     37 C         138.7922  142.5489  155.6701 C.3     1  UNL1        0.1082
     38 C         138.2700  141.5591  154.6713 C.3     1  UNL1        0.0938
     39 N         137.0979  140.6901  155.0191 N.3     1  UNL1       -0.2688
     40 C         136.9719  139.3232  154.4143 C.3     1  UNL1        0.0897
     41 C         136.0516  141.1880  155.9717 C.3     1  UNL1        0.0897
@<TRIPOS>BOND
     1    11    12    2
     2    12     7    1
     3     7     8    2
     4     7     9   am
     5     9     1    1
     6     1     2   ar
     7     2     3   ar
     8     3    13    1
     9    13    15    1
    10    15    16   ar
    11    16    17   ar
    12    17    18   ar
    13    18    19   ar
    14    19    21    1
    15    21    22   ar
    16    22    23   ar
    17    23    24   ar
    18    24    25   ar
    19    25    26   ar
    20    26    27   ar
    21    27    28   ar
    22    28    29   ar
    23    25    30    1
    24    30    31    1
    25    31    32    1
    26    19    20   ar
    27     3     4   ar
    28     4    33    1
    29    33    34    1
    30     4     5   ar
    31     5     6   ar
    32     6    35    1
    33    35    36    1
    34    35    37    1
    35    37    38    1
    36    38    39    1
    37    39    40    1
    38    39    41    1
    39     6     1   ar
    40    20    15   ar
    41    29    21   ar
    42    32    23    1
    43    29    24   ar
    44     9    10    1
    45    13    14    1
@<TRIPOS>MOLECULE
*****
 41 45 0 0 0
SMALL
GASTEIGER

@<TRIPOS>ATOM
      1 C         140.2155  141.5119  159.6954 C.ar    1  UNL1        0.0655
      2 C         141.1064  142.1853  160.6968 C.ar    1  UNL1        0.0337
      3 C         141.7632  143.4906  160.3580 C.ar    1  UNL1        0.0862
      4 C         141.5292  144.1225  159.0180 C.ar    1  UNL1        0.1534
      5 C         140.6383  143.4491  158.0166 C.ar    1  UNL1        0.0539
      6 C         139.9815  142.1438  158.3553 C.ar    1  UNL1        0.0647
      7 C         138.4180  140.1713  161.0076 C.2     1  UNL1        0.2497
      8 O         137.9757  141.0215  161.5341 O.2     1  UNL1       -0.2698
      9 N         139.5587  140.2065  160.0341 N.am    1  UNL1       -0.2794
     10 H         139.8763  139.3730  159.6175 H       1  UNL1        0.1552
     11 C         138.3989  137.9412  162.3403 C.2     1  UNL1        0.0048
     12 C         137.7612  138.8660  161.3463 C.2     1  UNL1        0.0580
     13 N         142.6541  144.1641  161.3594 N.pl3   1  UNL1       -0.2801
     14 H         142.7927  145.1379  161.3185 H       1  UNL1        0.1552
     15 C         143.3339  143.3537  162.4231 C.ar    1  UNL1        0.2207
     16 N         144.7409  142.8761  162.2178 N.ar    1  UNL1       -0.2120
     17 C         145.4206  142.0659  163.2814 C.ar    1  UNL1        0.1034
     18 C         144.6933  141.7331  164.5504 C.ar    1  UNL1        0.0400
     19 C         143.2863  142.2107  164.7558 C.ar    1  UNL1        0.0872
     20 N         142.6066  143.0210  163.6921 N.ar    1  UNL1       -0.2135
     21 C         142.5590  141.8780  166.0247 C.ar    1  UNL1        0.0364
     22 C         142.9518  142.3118  167.4059 C.ar    1  UNL1        0.0774
     23 N         141.9467  141.7550  168.3701 N.ar    1  UNL1       -0.3263
     24 C         140.9327  140.9769  167.5848 C.ar    1  UNL1        0.0559
     25 C         139.7138  140.2090  168.0025 C.ar    1  UNL1       -0.0063
     26 C         138.8732  139.5172  166.9707 C.ar    1  UNL1       -0.0028
     27 C         139.2515  139.5932  165.5212 C.ar    1  UNL1       -0.0002
     28 C         140.4705  140.3611  165.1035 C.ar    1  UNL1        0.0015
     29 C         141.3111  141.0529  166.1354 C.ar    1  UNL1        0.0184
     30 C         139.5779  140.3019  169.5002 C.3     1  UNL1        0.0298
     31 C         140.5103  141.0409  170.4138 C.3     1  UNL1        0.0292
     32 C         141.6947  141.7674  169.8487 C.3     1  UNL1        0.1064
     33 O         142.1860  145.4279  158.6792 O.3     1  UNL1       -0.4701
     34 C         142.1454  145.9449  157.2717 C.3     1  UNL1        0.2525
     35 N         139.0906  141.4704  157.3538 N.pl3   1  UNL1       -0.3033
     36 C         139.4023  140.8830  156.4857 C.3     1  UNL1        0.1123
     37 C         137.6000  141.5679  157.4908 C.3     1  UNL1        0.1082
     38 C         136.7399  141.6759  156.2667 C.3     1  UNL1        0.0938
     39 N         135.8680  140.5255  155.8588 N.3     1  UNL1       -0.2688
     40 C         136.3170  139.5919  154.7740 C.3     1  UNL1        0.0897
     41 C         134.5471  140.3086  156.5357 C.3     1  UNL1        0.0897
@<TRIPOS>BOND
     1    11    12    2
     2    12     7    1
     3     7     8    2
     4     7     9   am
     5     9     1    1
     6     1     2   ar
     7     2     3   ar
     8     3    13    1
     9    13    15    1
    10    15    16   ar
    11    16    17   ar
    12    17    18   ar
    13    18    19   ar
    14    19    21    1
    15    21    22   ar
    16    22    23   ar
    17    23    24   ar
    18    24    25   ar
    19    25    26   ar
    20    26    27   ar
    21    27    28   ar
    22    28    29   ar
    23    25    30    1
    24    30    31    1
    25    31    32    1
    26    19    20   ar
    27     3     4   ar
    28     4    33    1
    29    33    34    1
    30     4     5   ar
    31     5     6   ar
    32     6    35    1
    33    35    36    1
    34    35    37    1
    35    37    38    1
    36    38    39    1
    37    39    40    1
    38    39    41    1
    39     6     1   ar
    40    20    15   ar
    41    29    21   ar
    42    32    23    1
    43    29    24   ar
    44     9    10    1
    45    13    14    1
@<TRIPOS>MOLECULE
*****
 41 45 0 0 0
SMALL
GASTEIGER

@<TRIPOS>ATOM
      1 C         138.1685  140.8990  158.2264 C.ar    1  UNL1        0.0655
      2 C         137.6596  140.2392  159.4737 C.ar    1  UNL1        0.0337
      3 C         137.8083  140.9253  160.7993 C.ar    1  UNL1        0.0862
      4 C         138.4659  142.2711  160.8777 C.ar    1  UNL1        0.1534
      5 C         138.9748  142.9309  159.6304 C.ar    1  UNL1        0.0539
      6 C         138.8261  142.2448  158.3048 C.ar    1  UNL1        0.0647
      7 C         136.8507  140.5335  156.0174 C.2     1  UNL1        0.2497
      8 O         136.0447  141.2430  156.2241 O.2     1  UNL1       -0.2698
      9 N         138.0198  140.2129  156.9008 N.am    1  UNL1       -0.2794
     10 H         138.6896  139.5523  156.6106 H       1  UNL1        0.1552
     11 C         135.4082  139.9429  153.9389 C.2     1  UNL1        0.0048
     12 C         136.7020  139.8474  154.6919 C.2     1  UNL1        0.0580
     13 N         137.2993  140.2655  162.0465 N.pl3   1  UNL1       -0.2801
     14 H         136.3454  140.3272  162.2820 H       1  UNL1        0.1552
     15 C         138.2439  139.5115  162.9351 C.ar    1  UNL1        0.2207
     16 N         138.8200  138.2037  162.4792 N.ar    1  UNL1       -0.2120
     17 C         139.7645  137.4499  163.3677 C.ar    1  UNL1        0.1034
     18 C         140.1328  138.0037  164.7122 C.ar    1  UNL1        0.0400
     19 C         139.5567  139.3114  165.1682 C.ar    1  UNL1        0.0872
     20 N         138.6122  140.0653  164.2796 N.ar    1  UNL1       -0.2135
     21 C         139.9251  139.8652  166.5126 C.ar    1  UNL1        0.0364
     22 C         139.1690  139.6534  167.7907 C.ar    1  UNL1        0.0774
     23 N         139.8908  140.3854  168.8830 N.ar    1  UNL1       -0.3263
     24 C         141.0931  141.0496  168.2800 C.ar    1  UNL1        0.0559
     25 C         142.1712  141.9056  168.8756 C.ar    1  UNL1       -0.0063
     26 C         143.2705  142.4401  168.0063 C.ar    1  UNL1       -0.0028
     27 C         143.2917  142.1187  166.5413 C.ar    1  UNL1       -0.0002
     28 C         142.2135  141.2627  165.9457 C.ar    1  UNL1        0.0015
     29 C         141.1142  140.7281  166.8150 C.ar    1  UNL1        0.0184
     30 C         141.9002  142.0623  170.3495 C.3     1  UNL1        0.0298
     31 C         140.7431  141.4596  171.0898 C.3     1  UNL1        0.0292
     32 C         139.7384  140.6212  170.3565 C.3     1  UNL1        0.1064
     33 O         138.6146  142.9572  162.2033 O.3     1  UNL1       -0.4701
     34 C         139.9671  143.0698  162.8419 C.3     1  UNL1        0.2525
     35 N         139.3351  142.9047  157.0576 N.pl3   1  UNL1       -0.3033
     36 C         138.8341  143.6807  156.4722 C.3     1  UNL1        0.1123
     37 C         140.6669  142.5111  156.4907 C.3     1  UNL1        0.1082
     38 C         141.8665  142.4213  157.3868 C.3     1  UNL1        0.0938
     39 N         142.2693  143.6009  158.2211 N.3     1  UNL1       -0.2688
     40 C         142.6745  143.4043  159.6519 C.3     1  UNL1        0.0897
     41 C         142.2671  144.9772  157.6246 C.3     1  UNL1        0.0897
@<TRIPOS>BOND
     1    11    12    2
     2    12     7    1
     3     7     8    2
     4     7     9   am
     5     9     1    1
     6     1     2   ar
     7     2     3   ar
     8     3    13    1
     9    13    15    1
    10    15    16   ar
    11    16    17   ar
    12    17    18   ar
    13    18    19   ar
    14    19    21    1
    15    21    22   ar
    16    22    23   ar
    17    23    24   ar
    18    24    25   ar
    19    25    26   ar
    20    26    27   ar
    21    27    28   ar
    22    28    29   ar
    23    25    30    1
    24    30    31    1
    25    31    32    1
    26    19    20   ar
    27     3     4   ar
    28     4    33    1
    29    33    34    1
    30     4     5   ar
    31     5     6   ar
    32     6    35    1
    33    35    36    1
    34    35    37    1
    35    37    38    1
    36    38    39    1
    37    39    40    1
    38    39    41    1
    39     6     1   ar
    40    20    15   ar
    41    29    21   ar
    42    32    23    1
    43    29    24   ar
    44     9    10    1
    45    13    14    1
@<TRIPOS>MOLECULE
*****
 41 45 0 0 0
SMALL
GASTEIGER

@<TRIPOS>ATOM
      1 C         139.0009  140.1276  158.8177 C.ar    1  UNL1        0.0655
      2 C         138.2336  140.7612  159.9402 C.ar    1  UNL1        0.0337
      3 C         138.0245  140.0118  161.2226 C.ar    1  UNL1        0.0862
      4 C         138.5826  138.6287  161.3826 C.ar    1  UNL1        0.1534
      5 C         139.3498  137.9951  160.2602 C.ar    1  UNL1        0.0539
      6 C         139.5590  138.7446  158.9778 C.ar    1  UNL1        0.0647
      7 C         138.1669  140.8265  156.4585 C.2     1  UNL1        0.2497
      8 O         137.2182  140.2836  156.4862 O.2     1  UNL1       -0.2698
      9 N         139.2100  140.8771  157.5353 N.am    1  UNL1       -0.2794
     10 H         140.0318  141.4021  157.4004 H       1  UNL1        0.1552
     11 C         138.6921  140.8294  153.9140 C.2     1  UNL1        0.0048
     12 C         138.3761  141.5760  155.1761 C.2     1  UNL1        0.0580
     13 N         137.2572  140.6454  162.3450 N.pl3   1  UNL1       -0.2801
     14 H         136.3597  140.3136  162.5766 H       1  UNL1        0.1552
     15 C         137.8575  141.7846  163.1146 C.ar    1  UNL1        0.2207
     16 N         137.6521  143.1954  162.6483 N.ar    1  UNL1       -0.2120
     17 C         138.2523  144.3344  163.4178 C.ar    1  UNL1        0.1034
     18 C         139.0579  144.0627  164.6536 C.ar    1  UNL1        0.0400
     19 C         139.2633  142.6519  165.1199 C.ar    1  UNL1        0.0872
     20 N         138.6631  141.5129  164.3503 N.ar    1  UNL1       -0.2135
     21 C         140.0689  142.3802  166.3557 C.ar    1  UNL1        0.0364
     22 C         140.0959  143.2260  167.5942 C.ar    1  UNL1        0.0774
     23 N         141.0327  142.5835  168.5739 N.ar    1  UNL1       -0.3263
     24 C         141.5846  141.3407  167.9407 C.ar    1  UNL1        0.0559
     25 C         142.5527  140.3072  168.4355 C.ar    1  UNL1       -0.0063
     26 C         142.9251  139.1481  167.5593 C.ar    1  UNL1       -0.0028
     27 C         142.3294  139.0224  166.1884 C.ar    1  UNL1       -0.0002
     28 C         141.3614  140.0559  165.6937 C.ar    1  UNL1        0.0015
     29 C         140.9890  141.2151  166.5698 C.ar    1  UNL1        0.0184
     30 C         142.9851  140.6828  169.8291 C.3     1  UNL1        0.0298
     31 C         142.5204  141.8905  170.5879 C.3     1  UNL1        0.0292
     32 C         141.5442  142.8408  169.9603 C.3     1  UNL1        0.1064
     33 O         138.3734  137.8793  162.6650 O.3     1  UNL1       -0.4701
     34 C         139.4194  137.9244  163.7392 C.3     1  UNL1        0.2525
     35 N         140.3262  138.1109  157.8554 N.pl3   1  UNL1       -0.3033
     36 C         139.9126  137.5986  156.9823 C.3     1  UNL1        0.1123
     37 C         141.8259  138.1425  157.8602 C.3     1  UNL1        0.1082
     38 C         142.5507  139.2351  158.5888 C.3     1  UNL1        0.0938
     39 N         142.9679  139.0363  160.0158 N.3     1  UNL1       -0.2688
     40 C         143.1293  137.6493  160.5638 C.3     1  UNL1        0.0897
     41 C         143.2239  140.2245  160.8948 C.3     1  UNL1        0.0897
@<TRIPOS>BOND
     1    11    12    2
     2    12     7    1
     3     7     8    2
     4     7     9   am
     5     9     1    1
     6     1     2   ar
     7     2     3   ar
     8     3    13    1
     9    13    15    1
    10    15    16   ar
    11    16    17   ar
    12    17    18   ar
    13    18    19   ar
    14    19    21    1
    15    21    22   ar
    16    22    23   ar
    17    23    24   ar
    18    24    25   ar
    19    25    26   ar
    20    26    27   ar
    21    27    28   ar
    22    28    29   ar
    23    25    30    1
    24    30    31    1
    25    31    32    1
    26    19    20   ar
    27     3     4   ar
    28     4    33    1
    29    33    34    1
    30     4     5   ar
    31     5     6   ar
    32     6    35    1
    33    35    36    1
    34    35    37    1
    35    37    38    1
    36    38    39    1
    37    39    40    1
    38    39    41    1
    39     6     1   ar
    40    20    15   ar
    41    29    21   ar
    42    32    23    1
    43    29    24   ar
    44     9    10    1
    45    13    14    1
