@<TRIPOS>MOLECULE
*****
 21 22 0 0 0
SMALL
GASTEIGER

@<TRIPOS>ATOM
      1 C         142.9380  138.7165  166.3749 C.2     1  UNL1        0.2487
      2 O         144.0154  137.9524  167.0857 O.2     1  UNL1       -0.2699
      3 N         142.2148  139.8252  167.0804 N.am    1  UNL1       -0.2763
      4 C         144.6414  139.7166  164.1169 C.3     1  UNL1        0.0321
      5 C         143.4355  138.8720  163.8296 C.ar    1  UNL1       -0.0069
      6 C         143.0812  138.5275  162.4134 C.ar    1  UNL1        0.0538
      7 CL        143.9329  139.0275  161.2844 Cl      1  UNL1       -0.0826
      8 C         141.8753  137.6829  162.1262 C.ar    1  UNL1        0.0111
      9 C         141.0237  137.1829  163.2551 C.ar    1  UNL1        0.0010
     10 C         141.3779  137.5274  164.6713 C.ar    1  UNL1        0.0043
     11 C         142.5838  138.3720  164.9586 C.ar    1  UNL1        0.0504
     12 C         142.5690  140.1698  168.4967 C.3     1  UNL1        0.0927
     13 C         142.4228  139.2681  169.6864 C.3     1  UNL1        0.0383
     14 C         142.8950  140.0175  170.8969 C.3     1  UNL1        0.0704
     15 N         143.3330  141.3825  170.4553 N.3     1  UNL1       -0.2960
     16 C         143.1315  141.4766  168.9719 C.3     1  UNL1        0.0887
     17 H         144.3185  141.5194  170.6802 H       1  UNL1        0.1233
     18 C         141.1374  140.5894  166.3696 C.3     1  UNL1        0.0936
     19 C         139.7015  140.1860  166.5296 C.3     1  UNL1        0.0199
     20 C         138.7975  140.1405  165.3335 C.3     1  UNL1        0.0018
     21 C         139.1697  139.8280  167.8857 C.3     1  UNL1        0.0018
@<TRIPOS>BOND
     1     4     5    1
     2     5     6   ar
     3     6     7    1
     4     6     8   ar
     5     8     9   ar
     6     9    10   ar
     7    10    11   ar
     8    11     1    1
     9     1     2    2
    10     1     3   am
    11     3    18    1
    12    18    19    1
    13    19    20    1
    14    19    21    1
    15    12     3    1
    16    12    13    1
    17    13    14    1
    18    14    15    1
    19    15    16    1
    20    11     5   ar
    21    16    12    1
    22    15    17    1
@<TRIPOS>MOLECULE
*****
 21 22 0 0 0
SMALL
GASTEIGER

@<TRIPOS>ATOM
      1 C         139.2026  139.4501  166.9101 C.2     1  UNL1        0.2487
      2 O         138.1583  139.1244  167.9364 O.2     1  UNL1       -0.2699
      3 N         140.4822  140.1129  167.3263 N.am    1  UNL1       -0.2763
      4 C         138.2305  141.5630  165.0151 C.3     1  UNL1        0.0321
      5 C         138.4812  140.1695  164.5200 C.ar    1  UNL1       -0.0069
      6 C         138.2459  139.8323  163.0775 C.ar    1  UNL1        0.0538
      7 CL        137.7599  140.8888  162.1300 Cl      1  UNL1       -0.0826
      8 C         138.4967  138.4388  162.5824 C.ar    1  UNL1        0.0111
      9 C         138.9827  137.3823  163.5298 C.ar    1  UNL1        0.0010
     10 C         139.2180  137.7195  164.9724 C.ar    1  UNL1        0.0043
     11 C         138.9673  139.1130  165.4675 C.ar    1  UNL1        0.0504
     12 C         140.7176  140.4500  168.7688 C.3     1  UNL1        0.0927
     13 C         140.2683  141.6993  169.4669 C.3     1  UNL1        0.0383
     14 C         140.7166  141.6184  170.8961 C.3     1  UNL1        0.0704
     15 N         141.4429  140.3191  171.0813 N.3     1  UNL1       -0.2960
     16 C         141.4435  139.5970  169.7666 C.3     1  UNL1        0.0887
     17 H         140.9683  139.7546  171.7860 H       1  UNL1        0.1233
     18 C         141.5265  140.4386  166.2999 C.3     1  UNL1        0.0936
     19 C         142.4525  139.3669  165.8059 C.3     1  UNL1        0.0199
     20 C         142.5466  139.0753  164.3375 C.3     1  UNL1        0.0018
     21 C         143.2843  138.5867  166.7803 C.3     1  UNL1        0.0018
@<TRIPOS>BOND
     1     4     5    1
     2     5     6   ar
     3     6     7    1
     4     6     8   ar
     5     8     9   ar
     6     9    10   ar
     7    10    11   ar
     8    11     1    1
     9     1     2    2
    10     1     3   am
    11     3    18    1
    12    18    19    1
    13    19    20    1
    14    19    21    1
    15    12     3    1
    16    12    13    1
    17    13    14    1
    18    14    15    1
    19    15    16    1
    20    11     5   ar
    21    16    12    1
    22    15    17    1
@<TRIPOS>MOLECULE
*****
 21 22 0 0 0
SMALL
GASTEIGER

@<TRIPOS>ATOM
      1 C         142.9863  138.7341  166.4521 C.2     1  UNL1        0.2487
      2 O         144.0785  137.9894  167.1610 O.2     1  UNL1       -0.2699
      3 N         142.2269  139.8120  167.1673 N.am    1  UNL1       -0.2763
      4 C         144.7535  139.7069  164.2315 C.3     1  UNL1        0.0321
      5 C         143.5370  138.8873  163.9177 C.ar    1  UNL1       -0.0069
      6 C         143.2042  138.5542  162.4935 C.ar    1  UNL1        0.0538
      7 CL        144.0878  139.0405  161.3832 Cl      1  UNL1       -0.0826
      8 C         141.9877  137.7346  162.1797 C.ar    1  UNL1        0.0111
      9 C         141.1041  137.2483  163.2899 C.ar    1  UNL1        0.0010
     10 C         141.4369  137.5814  164.7140 C.ar    1  UNL1        0.0043
     11 C         142.6534  138.4010  165.0279 C.ar    1  UNL1        0.0504
     12 C         142.5598  140.1452  168.5915 C.3     1  UNL1        0.0927
     13 C         143.1370  141.4397  169.0823 C.3     1  UNL1        0.0383
     14 C         143.3078  141.3369  170.5690 C.3     1  UNL1        0.0704
     15 N         142.8360  139.9788  170.9970 N.3     1  UNL1       -0.2960
     16 C         142.3737  139.2423  169.7748 C.3     1  UNL1        0.0887
     17 H         142.0642  140.0727  171.6572 H       1  UNL1        0.1233
     18 C         141.1347  140.5567  166.4584 C.3     1  UNL1        0.0936
     19 C         141.3239  142.0000  166.0962 C.3     1  UNL1        0.0199
     20 C         142.6348  142.4673  165.5369 C.3     1  UNL1        0.0018
     21 C         140.2019  142.9760  166.2935 C.3     1  UNL1        0.0018
@<TRIPOS>BOND
     1     4     5    1
     2     5     6   ar
     3     6     7    1
     4     6     8   ar
     5     8     9   ar
     6     9    10   ar
     7    10    11   ar
     8    11     1    1
     9     1     2    2
    10     1     3   am
    11     3    18    1
    12    18    19    1
    13    19    20    1
    14    19    21    1
    15    12     3    1
    16    12    13    1
    17    13    14    1
    18    14    15    1
    19    15    16    1
    20    11     5   ar
    21    16    12    1
    22    15    17    1
@<TRIPOS>MOLECULE
*****
 21 22 0 0 0
SMALL
GASTEIGER

@<TRIPOS>ATOM
      1 C         139.2934  139.8120  166.7493 C.2     1  UNL1        0.2487
      2 O         138.4280  139.1604  167.7869 O.2     1  UNL1       -0.2699
      3 N         140.6825  140.2547  167.1017 N.am    1  UNL1       -0.2763
      4 C         139.3031  137.5436  164.7860 C.3     1  UNL1        0.0321
      5 C         138.7744  138.8866  164.3777 C.ar    1  UNL1       -0.0069
      6 C         138.2506  139.0955  162.9877 C.ar    1  UNL1        0.0538
      7 CL        138.2555  137.9613  162.0061 Cl      1  UNL1       -0.0826
      8 C         137.7220  140.4385  162.5794 C.ar    1  UNL1        0.0111
      9 C         137.7171  141.5727  163.5610 C.ar    1  UNL1        0.0010
     10 C         138.2409  141.3638  164.9509 C.ar    1  UNL1        0.0043
     11 C         138.7696  140.0208  165.3593 C.ar    1  UNL1        0.0504
     12 C         141.2064  140.0459  168.4916 C.3     1  UNL1        0.0927
     13 C         142.4715  139.3284  168.8585 C.3     1  UNL1        0.0383
     14 C         142.6041  139.3570  170.3523 C.3     1  UNL1        0.0704
     15 N         141.4209  140.0922  170.9087 N.3     1  UNL1       -0.2960
     16 C         140.5570  140.5179  169.7587 C.3     1  UNL1        0.0887
     17 H         141.7354  140.9121  171.4275 H       1  UNL1        0.1233
     18 C         141.5479  140.9063  166.0640 C.3     1  UNL1        0.0936
     19 C         142.1551  140.0814  164.9682 C.3     1  UNL1        0.0199
     20 C         142.0206  140.5169  163.5392 C.3     1  UNL1        0.0018
     21 C         142.8968  138.8208  165.3015 C.3     1  UNL1        0.0018
@<TRIPOS>BOND
     1     4     5    1
     2     5     6   ar
     3     6     7    1
     4     6     8   ar
     5     8     9   ar
     6     9    10   ar
     7    10    11   ar
     8    11     1    1
     9     1     2    2
    10     1     3   am
    11     3    18    1
    12    18    19    1
    13    19    20    1
    14    19    21    1
    15    12     3    1
    16    12    13    1
    17    13    14    1
    18    14    15    1
    19    15    16    1
    20    11     5   ar
    21    16    12    1
    22    15    17    1
@<TRIPOS>MOLECULE
*****
 21 22 0 0 0
SMALL
GASTEIGER

@<TRIPOS>ATOM
      1 C         141.6469  139.7507  166.8225 C.2     1  UNL1        0.2487
      2 O         142.4676  139.3437  168.0103 O.2     1  UNL1       -0.2699
      3 N         140.5003  140.7025  166.9937 N.am    1  UNL1       -0.2763
      4 C         143.6855  141.1261  165.1042 C.3     1  UNL1        0.0321
      5 C         142.9921  139.8935  164.6044 C.ar    1  UNL1       -0.0069
      6 C         143.3179  139.3486  163.2454 C.ar    1  UNL1        0.0538
      7 CL        144.3372  140.0363  162.3862 Cl      1  UNL1       -0.0826
      8 C         142.6245  138.1160  162.7455 C.ar    1  UNL1        0.0111
      9 C         141.6052  137.4283  163.6046 C.ar    1  UNL1        0.0010
     10 C         141.2794  137.9732  164.9636 C.ar    1  UNL1        0.0043
     11 C         141.9728  139.2058  165.4635 C.ar    1  UNL1        0.0504
     12 C         140.1743  141.2474  168.3527 C.3     1  UNL1        0.0927
     13 C         140.5420  142.6069  168.8689 C.3     1  UNL1        0.0383
     14 C         140.0184  142.7282  170.2693 C.3     1  UNL1        0.0704
     15 N         139.3272  141.4436  170.6186 N.3     1  UNL1       -0.2960
     16 C         139.4235  140.5284  169.4341 C.3     1  UNL1        0.0887
     17 H         138.3475  141.6258  170.8365 H       1  UNL1        0.1233
     18 C         139.6796  141.1094  165.8059 C.3     1  UNL1        0.0936
     19 C         138.5527  140.2367  165.3384 C.3     1  UNL1        0.0199
     20 C         137.9720  140.4309  163.9691 C.3     1  UNL1        0.0018
     21 C         138.0065  139.1697  166.2403 C.3     1  UNL1        0.0018
@<TRIPOS>BOND
     1     4     5    1
     2     5     6   ar
     3     6     7    1
     4     6     8   ar
     5     8     9   ar
     6     9    10   ar
     7    10    11   ar
     8    11     1    1
     9     1     2    2
    10     1     3   am
    11     3    18    1
    12    18    19    1
    13    19    20    1
    14    19    21    1
    15    12     3    1
    16    12    13    1
    17    13    14    1
    18    14    15    1
    19    15    16    1
    20    11     5   ar
    21    16    12    1
    22    15    17    1
@<TRIPOS>MOLECULE
*****
 21 22 0 0 0
SMALL
GASTEIGER

@<TRIPOS>ATOM
      1 C         140.3656  142.5821  167.0150 C.2     1  UNL1        0.2487
      2 O         140.6342  143.3768  168.2585 O.2     1  UNL1       -0.2699
      3 N         140.4427  141.0845  167.0506 N.am    1  UNL1       -0.2763
      4 C         142.5037  143.1441  164.9870 C.3     1  UNL1        0.0321
      5 C         141.0889  143.5660  164.7217 C.ar    1  UNL1       -0.0069
      6 C         140.7432  144.2689  163.4426 C.ar    1  UNL1        0.0538
      7 CL        141.8122  144.5499  162.4285 Cl      1  UNL1       -0.0826
      8 C         139.3284  144.6909  163.1774 C.ar    1  UNL1        0.0111
      9 C         138.2593  144.4099  164.1913 C.ar    1  UNL1        0.0010
     10 C         138.6051  143.7070  165.4705 C.ar    1  UNL1        0.0043
     11 C         140.0199  143.2850  165.7357 C.ar    1  UNL1        0.0504
     12 C         140.7884  140.3816  168.3298 C.3     1  UNL1        0.0927
     13 C         142.1171  139.7751  168.6713 C.3     1  UNL1        0.0383
     14 C         142.0160  139.1804  170.0446 C.3     1  UNL1        0.0704
     15 N         140.6247  139.4193  170.5519 N.3     1  UNL1       -0.2960
     16 C         139.8660  140.1616  169.4921 C.3     1  UNL1        0.0887
     17 H         140.6586  139.9748  171.4067 H       1  UNL1        0.1233
     18 C         140.1740  140.2899  165.8071 C.3     1  UNL1        0.0936
     19 C         138.7758  139.8536  165.4832 C.3     1  UNL1        0.0199
     20 C         138.0335  138.9539  166.4262 C.3     1  UNL1        0.0018
     21 C         138.1200  140.3173  164.2163 C.3     1  UNL1        0.0018
@<TRIPOS>BOND
     1     4     5    1
     2     5     6   ar
     3     6     7    1
     4     6     8   ar
     5     8     9   ar
     6     9    10   ar
     7    10    11   ar
     8    11     1    1
     9     1     2    2
    10     1     3   am
    11     3    18    1
    12    18    19    1
    13    19    20    1
    14    19    21    1
    15    12     3    1
    16    12    13    1
    17    13    14    1
    18    14    15    1
    19    15    16    1
    20    11     5   ar
    21    16    12    1
    22    15    17    1
@<TRIPOS>MOLECULE
*****
 21 22 0 0 0
SMALL
GASTEIGER

@<TRIPOS>ATOM
      1 C         141.6517  141.8973  165.7684 C.2     1  UNL1        0.2487
      2 O         142.9642  141.2477  165.4441 O.2     1  UNL1       -0.2699
      3 N         141.1996  143.1012  164.9962 N.am    1  UNL1       -0.2763
      4 C         139.6267  139.7702  165.1564 C.3     1  UNL1        0.0321
      5 C         139.7787  140.2796  166.5590 C.ar    1  UNL1       -0.0069
      6 C         138.9183  139.7255  167.6556 C.ar    1  UNL1        0.0538
      7 CL        137.9057  138.6619  167.3496 Cl      1  UNL1       -0.0826
      8 C         139.0703  140.2349  169.0582 C.ar    1  UNL1        0.0111
      9 C         140.0828  141.2985  169.3643 C.ar    1  UNL1        0.0010
     10 C         140.9432  141.8526  168.2677 C.ar    1  UNL1        0.0043
     11 C         140.7912  141.3431  166.8651 C.ar    1  UNL1        0.0504
     12 C         142.0601  143.6554  163.8997 C.3     1  UNL1        0.0927
     13 C         142.2450  143.0574  162.5366 C.3     1  UNL1        0.0383
     14 C         143.1859  143.9373  161.7681 C.3     1  UNL1        0.0704
     15 N         143.5824  145.0792  162.6563 N.3     1  UNL1       -0.2960
     16 C         142.8866  144.9050  163.9737 C.3     1  UNL1        0.0887
     17 H         143.3016  145.9625  162.2307 H       1  UNL1        0.1233
     18 C         139.8871  143.7509  165.3206 C.3     1  UNL1        0.0936
     19 C         138.7692  143.7233  164.3208 C.3     1  UNL1        0.0199
     20 C         138.7276  144.7351  163.2142 C.3     1  UNL1        0.0018
     21 C         137.6929  142.6839  164.4276 C.3     1  UNL1        0.0018
@<TRIPOS>BOND
     1     4     5    1
     2     5     6   ar
     3     6     7    1
     4     6     8   ar
     5     8     9   ar
     6     9    10   ar
     7    10    11   ar
     8    11     1    1
     9     1     2    2
    10     1     3   am
    11     3    18    1
    12    18    19    1
    13    19    20    1
    14    19    21    1
    15    12     3    1
    16    12    13    1
    17    13    14    1
    18    14    15    1
    19    15    16    1
    20    11     5   ar
    21    16    12    1
    22    15    17    1
@<TRIPOS>MOLECULE
*****
 21 22 0 0 0
SMALL
GASTEIGER

@<TRIPOS>ATOM
      1 C         140.6311  139.7662  166.3703 C.2     1  UNL1        0.2487
      2 O         141.9187  139.0020  166.2811 O.2     1  UNL1       -0.2699
      3 N         139.7357  139.8697  165.1713 N.am    1  UNL1       -0.2763
      4 C         141.8005  142.4288  167.1074 C.3     1  UNL1        0.0321
      5 C         140.8235  141.7582  168.0271 C.ar    1  UNL1       -0.0069
      6 C         140.4312  142.4190  169.3153 C.ar    1  UNL1        0.0538
      7 CL        141.0159  143.7503  169.6839 Cl      1  UNL1       -0.0826
      8 C         139.4541  141.7484  170.2350 C.ar    1  UNL1        0.0111
      9 C         138.8694  140.4172  169.8664 C.ar    1  UNL1        0.0010
     10 C         139.2617  139.7565  168.5783 C.ar    1  UNL1        0.0043
     11 C         140.2388  140.4270  167.6586 C.ar    1  UNL1        0.0504
     12 C         140.1280  139.2089  163.8831 C.3     1  UNL1        0.0927
     13 C         140.9336  139.8323  162.7821 C.3     1  UNL1        0.0383
     14 C         141.0871  138.8175  161.6882 C.3     1  UNL1        0.0704
     15 N         140.3762  137.5668  162.1132 N.3     1  UNL1       -0.2960
     16 C         139.7835  137.8088  163.4697 C.3     1  UNL1        0.0887
     17 H         141.0370  136.7911  162.1576 H       1  UNL1        0.1233
     18 C         138.4481  140.6339  165.2606 C.3     1  UNL1        0.0936
     19 C         138.2649  141.8906  164.4623 C.3     1  UNL1        0.0199
     20 C         137.3658  141.8921  163.2616 C.3     1  UNL1        0.0018
     21 C         138.9809  143.1458  164.8647 C.3     1  UNL1        0.0018
@<TRIPOS>BOND
     1     4     5    1
     2     5     6   ar
     3     6     7    1
     4     6     8   ar
     5     8     9   ar
     6     9    10   ar
     7    10    11   ar
     8    11     1    1
     9     1     2    2
    10     1     3   am
    11     3    18    1
    12    18    19    1
    13    19    20    1
    14    19    21    1
    15    12     3    1
    16    12    13    1
    17    13    14    1
    18    14    15    1
    19    15    16    1
    20    11     5   ar
    21    16    12    1
    22    15    17    1
@<TRIPOS>MOLECULE
*****
 21 22 0 0 0
SMALL
GASTEIGER

@<TRIPOS>ATOM
      1 C         140.7468  141.5336  164.6735 C.2     1  UNL1        0.2487
      2 O         141.5046  142.6782  164.0688 O.2     1  UNL1       -0.2699
      3 N         139.4317  141.1121  164.0881 N.am    1  UNL1       -0.2763
      4 C         142.7756  139.3568  164.2917 C.3     1  UNL1        0.0321
      5 C         142.3185  139.7222  165.6728 C.ar    1  UNL1       -0.0069
      6 C         142.8758  138.9992  166.8630 C.ar    1  UNL1        0.0538
      7 CL        143.8902  137.9107  166.6721 Cl      1  UNL1       -0.0826
      8 C         142.4187  139.3645  168.2442 C.ar    1  UNL1        0.0111
      9 C         141.4044  140.4529  168.4351 C.ar    1  UNL1        0.0010
     10 C         140.8471  141.1759  167.2449 C.ar    1  UNL1        0.0043
     11 C         141.3042  140.8105  165.8638 C.ar    1  UNL1        0.0504
     12 C         138.8744  141.8351  162.8979 C.3     1  UNL1        0.0927
     13 C         139.2513  141.5971  161.4657 C.3     1  UNL1        0.0383
     14 C         138.4521  142.5379  160.6135 C.3     1  UNL1        0.0704
     15 N         137.5813  143.3575  161.5191 N.3     1  UNL1       -0.2960
     16 C         137.8423  142.9231  162.9309 C.3     1  UNL1        0.0887
     17 H         136.5999  143.2058  161.2861 H       1  UNL1        0.1233
     18 C         138.6739  139.9675  164.6928 C.3     1  UNL1        0.0936
     19 C         139.0015  138.5583  164.2965 C.3     1  UNL1        0.0199
     20 C         139.1934  137.5082  165.3502 C.3     1  UNL1        0.0018
     21 C         139.1372  138.1994  162.8464 C.3     1  UNL1        0.0018
@<TRIPOS>BOND
     1     4     5    1
     2     5     6   ar
     3     6     7    1
     4     6     8   ar
     5     8     9   ar
     6     9    10   ar
     7    10    11   ar
     8    11     1    1
     9     1     2    2
    10     1     3   am
    11     3    18    1
    12    18    19    1
    13    19    20    1
    14    19    21    1
    15    12     3    1
    16    12    13    1
    17    13    14    1
    18    14    15    1
    19    15    16    1
    20    11     5   ar
    21    16    12    1
    22    15    17    1
