@<TRIPOS>MOLECULE
*****
 34 38 0 0 0
SMALL
GASTEIGER

@<TRIPOS>ATOM
      1 N         142.9226  144.0775  162.5958 N.3     1  UNL1       -0.2711
      2 C         142.1273  143.8477  161.3449 C.3     1  UNL1        0.0735
      3 C         140.6726  144.2112  161.3037 C.3     1  UNL1        0.0331
      4 C         140.0133  144.8045  162.5133 C.3     1  UNL1        0.0570
      5 C         140.8086  145.0343  163.7642 C.3     1  UNL1        0.0331
      6 C         142.2633  144.6708  163.8054 C.3     1  UNL1        0.0735
      7 N         138.5585  145.1680  162.4721 N.3     1  UNL1       -0.2934
      8 H         138.3115  145.2833  161.4892 H       1  UNL1        0.1236
      9 C         137.5378  144.2457  163.0699 C.3     1  UNL1        0.1152
     10 C         137.7548  142.7620  163.0330 C.ar    1  UNL1        0.0782
     11 C         137.9868  142.0060  164.3076 C.ar    1  UNL1        0.0562
     12 C         138.2039  140.5223  164.2708 C.ar    1  UNL1        0.1752
     13 C         138.1888  139.7944  162.9592 C.ar    1  UNL1        0.1914
     14 C         137.9568  140.5504  161.6846 C.ar    1  UNL1        0.1384
     15 N         137.7397  142.0342  161.7215 N.ar    1  UNL1       -0.2434
     16 O         138.4058  138.3107  162.9224 O.3     1  UNL1       -0.4668
     17 C         138.6379  137.5547  164.1970 C.3     1  UNL1        0.2527
     18 C         138.6529  138.2825  165.5085 C.3     1  UNL1        0.2526
     19 O         138.4359  139.7663  165.5454 O.3     1  UNL1       -0.4683
     20 C         144.3774  143.7140  162.6370 C.3     1  UNL1        0.0942
     21 C         144.8421  142.5764  163.4972 C.3     1  UNL1        0.1155
     22 C         142.8877  141.8293  167.4812 C.ar    1  UNL1        0.1400
     23 C         142.0112  140.6272  167.6729 C.ar    1  UNL1        0.0375
     24 C         141.7862  139.6742  166.5366 C.ar    1  UNL1        0.0105
     25 C         142.4376  139.9232  165.2087 C.ar    1  UNL1        0.0395
     26 C         143.3141  141.1253  165.0170 C.ar    1  UNL1        0.0625
     27 C         143.5391  142.0783  166.1532 C.ar    1  UNL1        0.0523
     28 N         143.9656  141.3744  163.6889 N.am    1  UNL1       -0.2559
     29 C         143.7406  140.4213  162.5527 C.2     1  UNL1        0.2407
     30 O         144.3920  140.6704  161.2247 O.2     1  UNL1       -0.2736
     31 C         142.8640  139.2192  162.7444 C.3     1  UNL1        0.1475
     32 S         142.2126  138.9702  164.0724 S.3     1  UNL1       -0.1026
     33 C         143.9204  142.3542  169.8067 C.3     1  UNL1        0.2525
     34 O         143.1127  142.7823  168.6175 O.3     1  UNL1       -0.4714
@<TRIPOS>BOND
     1    33    34    1
     2    34    22    1
     3    22    23   ar
     4    23    24   ar
     5    24    25   ar
     6    25    26   ar
     7    26    27   ar
     8    26    28    1
     9    28    21    1
    10    21    20    1
    11    20     1    1
    12     1     2    1
    13     2     3    1
    14     3     4    1
    15     4     7    1
    16     7     9    1
    17     9    10    1
    18    10    11   ar
    19    11    12   ar
    20    12    13   ar
    21    13    14   ar
    22    14    15   ar
    23    13    16    1
    24    16    17    1
    25    17    18    1
    26    18    19    1
    27     4     5    1
    28     5     6    1
    29    28    29   am
    30    29    30    2
    31    29    31    1
    32    31    32    1
    33    27    22   ar
    34     6     1    1
    35    32    25    1
    36    15    10   ar
    37    19    12    1
    38     7     8    1
@<TRIPOS>MOLECULE
*****
 34 38 0 0 0
SMALL
GASTEIGER

@<TRIPOS>ATOM
      1 N         137.8577  142.9580  162.9281 N.3     1  UNL1       -0.2711
      2 C         137.6428  141.8244  163.8866 C.3     1  UNL1        0.0735
      3 C         137.6451  140.4098  163.3878 C.3     1  UNL1        0.0331
      4 C         137.8623  140.1288  161.9305 C.3     1  UNL1        0.0570
      5 C         138.0772  141.2625  160.9720 C.3     1  UNL1        0.0331
      6 C         138.0749  142.6770  161.4708 C.3     1  UNL1        0.0735
      7 N         137.8646  138.7142  161.4316 N.3     1  UNL1       -0.2934
      8 H         137.2970  138.6999  160.5842 H       1  UNL1        0.1236
      9 C         139.1615  138.0395  161.0956 C.3     1  UNL1        0.1152
     10 C         140.3511  138.2120  161.9928 C.ar    1  UNL1        0.0782
     11 C         141.4358  139.1796  161.6224 C.ar    1  UNL1        0.0562
     12 C         142.6254  139.3521  162.5195 C.ar    1  UNL1        0.1752
     13 C         142.7304  138.5570  163.7872 C.ar    1  UNL1        0.1914
     14 C         141.6457  137.5893  164.1575 C.ar    1  UNL1        0.1384
     15 N         140.4561  137.4169  163.2603 N.ar    1  UNL1       -0.2434
     16 O         143.9201  138.7294  164.6843 O.3     1  UNL1       -0.4668
     17 C         145.0048  139.6971  164.3140 C.3     1  UNL1        0.2527
     18 C         144.8998  140.4922  163.0464 C.3     1  UNL1        0.2526
     19 O         143.7101  140.3197  162.1492 O.3     1  UNL1       -0.4683
     20 C         137.8555  144.3727  163.4270 C.3     1  UNL1        0.0942
     21 C         138.8745  144.8140  164.4354 C.3     1  UNL1        0.1155
     22 C         140.9659  141.9453  167.2006 C.ar    1  UNL1        0.1400
     23 C         142.4161  141.6243  166.9912 C.ar    1  UNL1        0.0375
     24 C         143.1692  142.2595  165.8601 C.ar    1  UNL1        0.0105
     25 C         142.4721  143.2157  164.9384 C.ar    1  UNL1        0.0395
     26 C         141.0219  143.5367  165.1478 C.ar    1  UNL1        0.0625
     27 C         140.2688  142.9015  166.2789 C.ar    1  UNL1        0.0523
     28 N         140.3247  144.4930  164.2260 N.am    1  UNL1       -0.2559
     29 C         141.0777  145.1282  163.0949 C.2     1  UNL1        0.2407
     30 O         140.3806  146.0844  162.1732 O.2     1  UNL1       -0.2736
     31 C         142.5280  144.8072  162.8856 C.3     1  UNL1        0.1475
     32 S         143.2251  143.8510  163.8073 S.3     1  UNL1       -0.1026
     33 C         139.4554  140.0352  168.1060 C.3     1  UNL1        0.2525
     34 O         140.2129  141.3100  168.3317 O.3     1  UNL1       -0.4714
@<TRIPOS>BOND
     1    33    34    1
     2    34    22    1
     3    22    23   ar
     4    23    24   ar
     5    24    25   ar
     6    25    26   ar
     7    26    27   ar
     8    26    28    1
     9    28    21    1
    10    21    20    1
    11    20     1    1
    12     1     2    1
    13     2     3    1
    14     3     4    1
    15     4     7    1
    16     7     9    1
    17     9    10    1
    18    10    11   ar
    19    11    12   ar
    20    12    13   ar
    21    13    14   ar
    22    14    15   ar
    23    13    16    1
    24    16    17    1
    25    17    18    1
    26    18    19    1
    27     4     5    1
    28     5     6    1
    29    28    29   am
    30    29    30    2
    31    29    31    1
    32    31    32    1
    33    27    22   ar
    34     6     1    1
    35    32    25    1
    36    15    10   ar
    37    19    12    1
    38     7     8    1
@<TRIPOS>MOLECULE
*****
 34 38 0 0 0
SMALL
GASTEIGER

@<TRIPOS>ATOM
      1 N         138.1145  139.9831  162.4199 N.3     1  UNL1       -0.2711
      2 C         137.7223  140.7158  163.6687 C.3     1  UNL1        0.0735
      3 C         137.5913  142.2099  163.6518 C.3     1  UNL1        0.0331
      4 C         137.8525  142.9714  162.3862 C.3     1  UNL1        0.0570
      5 C         138.2447  142.2387  161.1374 C.3     1  UNL1        0.0331
      6 C         138.3757  140.7446  161.1543 C.3     1  UNL1        0.0735
      7 N         137.7215  144.4656  162.3692 N.3     1  UNL1       -0.2934
      8 H         136.9808  144.7037  163.0289 H       1  UNL1        0.1236
      9 C         138.9011  145.3258  162.7136 C.3     1  UNL1        0.1152
     10 C         140.2839  144.7448  162.6952 C.ar    1  UNL1        0.0782
     11 C         140.9106  144.2597  163.9687 C.ar    1  UNL1        0.0562
     12 C         142.2934  143.6787  163.9502 C.ar    1  UNL1        0.1752
     13 C         143.0495  143.5829  162.6582 C.ar    1  UNL1        0.1914
     14 C         142.4227  144.0680  161.3847 C.ar    1  UNL1        0.1384
     15 N         141.0399  144.6490  161.4032 N.ar    1  UNL1       -0.2434
     16 O         144.4323  143.0019  162.6397 O.3     1  UNL1       -0.4668
     17 C         145.0590  142.5167  163.9132 C.3     1  UNL1        0.2527
     18 C         144.3030  142.6126  165.2052 C.3     1  UNL1        0.2526
     19 O         142.9201  143.1936  165.2237 O.3     1  UNL1       -0.4683
     20 C         138.2455  138.4889  162.4369 C.3     1  UNL1        0.0942
     21 C         138.9764  137.8127  163.5587 C.3     1  UNL1        0.1155
     22 C         139.9162  139.6287  167.5673 C.ar    1  UNL1        0.1400
     23 C         141.3229  140.0321  167.8967 C.ar    1  UNL1        0.0375
     24 C         142.4163  139.8301  166.8899 C.ar    1  UNL1        0.0105
     25 C         142.1031  139.2248  165.5537 C.ar    1  UNL1        0.0395
     26 C         140.6964  138.8215  165.2244 C.ar    1  UNL1        0.0625
     27 C         139.6030  139.0234  166.2312 C.ar    1  UNL1        0.0523
     28 N         140.3831  138.2161  163.8881 N.am    1  UNL1       -0.2559
     29 C         141.4765  138.0141  162.8813 C.2     1  UNL1        0.2407
     30 O         141.1633  137.4088  161.5451 O.2     1  UNL1       -0.2736
     31 C         142.8832  138.4175  163.2108 C.3     1  UNL1        0.1475
     32 S         143.1965  139.0228  164.5469 S.3     1  UNL1       -0.1026
     33 C         139.1365  140.4335  169.9113 C.3     1  UNL1        0.2525
     34 O         138.8228  139.8307  168.5741 O.3     1  UNL1       -0.4714
@<TRIPOS>BOND
     1    33    34    1
     2    34    22    1
     3    22    23   ar
     4    23    24   ar
     5    24    25   ar
     6    25    26   ar
     7    26    27   ar
     8    26    28    1
     9    28    21    1
    10    21    20    1
    11    20     1    1
    12     1     2    1
    13     2     3    1
    14     3     4    1
    15     4     7    1
    16     7     9    1
    17     9    10    1
    18    10    11   ar
    19    11    12   ar
    20    12    13   ar
    21    13    14   ar
    22    14    15   ar
    23    13    16    1
    24    16    17    1
    25    17    18    1
    26    18    19    1
    27     4     5    1
    28     5     6    1
    29    28    29   am
    30    29    30    2
    31    29    31    1
    32    31    32    1
    33    27    22   ar
    34     6     1    1
    35    32    25    1
    36    15    10   ar
    37    19    12    1
    38     7     8    1
@<TRIPOS>MOLECULE
*****
 34 38 0 0 0
SMALL
GASTEIGER

@<TRIPOS>ATOM
      1 N         140.8763  144.8055  162.9726 N.3     1  UNL1       -0.2711
      2 C         141.9798  144.9602  163.9767 C.3     1  UNL1        0.0735
      3 C         143.3632  144.4809  163.6506 C.3     1  UNL1        0.0331
      4 C         143.6431  143.8468  162.3204 C.3     1  UNL1        0.0570
      5 C         142.5395  143.6921  161.3163 C.3     1  UNL1        0.0331
      6 C         141.1561  144.1714  161.6424 C.3     1  UNL1        0.0735
      7 N         145.0265  143.3674  161.9942 N.3     1  UNL1       -0.2934
      8 H         145.6349  143.6897  162.7468 H       1  UNL1        0.1236
      9 C         145.2909  141.9011  161.8215 C.3     1  UNL1        0.1152
     10 C         144.5361  140.9007  162.6458 C.ar    1  UNL1        0.0782
     11 C         143.4438  140.0849  162.0204 C.ar    1  UNL1        0.0562
     12 C         142.6890  139.0845  162.8447 C.ar    1  UNL1        0.1752
     13 C         143.0266  138.9000  164.2946 C.ar    1  UNL1        0.1914
     14 C         144.1189  139.7158  164.9201 C.ar    1  UNL1        0.1384
     15 N         144.8737  140.7162  164.0956 N.ar    1  UNL1       -0.2434
     16 O         142.2718  137.8996  165.1190 O.3     1  UNL1       -0.4668
     17 C         141.1795  137.0838  164.4935 C.3     1  UNL1        0.2527
     18 C         140.8419  137.2683  163.0437 C.3     1  UNL1        0.2526
     19 O         141.5967  138.2686  162.2193 O.3     1  UNL1       -0.4683
     20 C         139.4928  145.2848  163.2988 C.3     1  UNL1        0.0942
     21 C         138.6593  144.5437  164.3018 C.3     1  UNL1        0.1155
     22 C         140.5674  142.2231  167.6519 C.ar    1  UNL1        0.1400
     23 C         140.5353  140.7235  167.6388 C.ar    1  UNL1        0.0375
     24 C         139.8672  139.9974  166.5090 C.ar    1  UNL1        0.0105
     25 C         139.2312  140.7710  165.3923 C.ar    1  UNL1        0.0395
     26 C         139.2633  142.2705  165.4054 C.ar    1  UNL1        0.0625
     27 C         139.9314  142.9966  166.5352 C.ar    1  UNL1        0.0523
     28 N         138.6272  143.0441  164.2887 N.am    1  UNL1       -0.2559
     29 C         137.9591  142.3181  163.1589 C.2     1  UNL1        0.2407
     30 O         137.3230  143.0916  162.0422 O.2     1  UNL1       -0.2736
     31 C         137.9270  140.8184  163.1458 C.3     1  UNL1        0.1475
     32 S         138.5630  140.0449  164.2625 S.3     1  UNL1       -0.1026
     33 C         140.4206  143.7904  169.7188 C.3     1  UNL1        0.2525
     34 O         141.2355  142.9491  168.7818 O.3     1  UNL1       -0.4714
@<TRIPOS>BOND
     1    33    34    1
     2    34    22    1
     3    22    23   ar
     4    23    24   ar
     5    24    25   ar
     6    25    26   ar
     7    26    27   ar
     8    26    28    1
     9    28    21    1
    10    21    20    1
    11    20     1    1
    12     1     2    1
    13     2     3    1
    14     3     4    1
    15     4     7    1
    16     7     9    1
    17     9    10    1
    18    10    11   ar
    19    11    12   ar
    20    12    13   ar
    21    13    14   ar
    22    14    15   ar
    23    13    16    1
    24    16    17    1
    25    17    18    1
    26    18    19    1
    27     4     5    1
    28     5     6    1
    29    28    29   am
    30    29    30    2
    31    29    31    1
    32    31    32    1
    33    27    22   ar
    34     6     1    1
    35    32    25    1
    36    15    10   ar
    37    19    12    1
    38     7     8    1
@<TRIPOS>MOLECULE
*****
 34 38 0 0 0
SMALL
GASTEIGER

@<TRIPOS>ATOM
      1 N         141.7898  138.2016  163.9583 N.3     1  UNL1       -0.2711
      2 C         142.0835  138.6287  162.5507 C.3     1  UNL1        0.0735
      3 C         143.3330  139.4009  162.2465 C.3     1  UNL1        0.0331
      4 C         144.2887  139.7460  163.3498 C.3     1  UNL1        0.0570
      5 C         143.9950  139.3188  164.7574 C.3     1  UNL1        0.0331
      6 C         142.7456  138.5467  165.0617 C.3     1  UNL1        0.0735
      7 N         145.5382  140.5182  163.0456 N.3     1  UNL1       -0.2934
      8 H         145.6972  140.4373  162.0413 H       1  UNL1        0.1236
      9 C         145.6178  141.9782  163.3804 C.3     1  UNL1        0.1152
     10 C         144.4251  142.8625  163.1675 C.ar    1  UNL1        0.0782
     11 C         143.9212  143.1208  161.7785 C.ar    1  UNL1        0.0562
     12 C         142.7286  144.0051  161.5656 C.ar    1  UNL1        0.1752
     13 C         142.0396  144.6313  162.7418 C.ar    1  UNL1        0.1914
     14 C         142.5435  144.3730  164.1308 C.ar    1  UNL1        0.1384
     15 N         143.7362  143.4886  164.3437 N.ar    1  UNL1       -0.2434
     16 O         140.8469  145.5156  162.5289 O.3     1  UNL1       -0.4668
     17 C         140.3431  145.7739  161.1399 C.3     1  UNL1        0.2527
     18 C         141.0320  145.1478  159.9637 C.3     1  UNL1        0.2526
     19 O         142.2247  144.2634  160.1765 O.3     1  UNL1       -0.4683
     20 C         140.5403  137.4294  164.2625 C.3     1  UNL1        0.0942
     21 C         139.3111  138.1477  164.7350 C.3     1  UNL1        0.1155
     22 C         140.1879  142.1013  166.6970 C.ar    1  UNL1        0.1400
     23 C         139.7638  143.3781  166.0337 C.ar    1  UNL1        0.0375
     24 C         139.0474  143.3370  164.7165 C.ar    1  UNL1        0.0105
     25 C         138.7552  142.0192  164.0625 C.ar    1  UNL1        0.0395
     26 C         139.1793  140.7424  164.7257 C.ar    1  UNL1        0.0625
     27 C         139.8957  140.7835  166.0430 C.ar    1  UNL1        0.0523
     28 N         138.8870  139.4244  164.0717 N.am    1  UNL1       -0.2559
     29 C         138.1706  139.3833  162.7545 C.2     1  UNL1        0.2407
     30 O         137.8783  138.0655  162.1005 O.2     1  UNL1       -0.2736
     31 C         137.7465  140.6602  162.0913 C.3     1  UNL1        0.1475
     32 S         138.0388  141.9781  162.7453 S.3     1  UNL1       -0.1026
     33 C         140.4751  143.1161  169.0713 C.3     1  UNL1        0.2525
     34 O         140.9043  142.1424  168.0142 O.3     1  UNL1       -0.4714
@<TRIPOS>BOND
     1    33    34    1
     2    34    22    1
     3    22    23   ar
     4    23    24   ar
     5    24    25   ar
     6    25    26   ar
     7    26    27   ar
     8    26    28    1
     9    28    21    1
    10    21    20    1
    11    20     1    1
    12     1     2    1
    13     2     3    1
    14     3     4    1
    15     4     7    1
    16     7     9    1
    17     9    10    1
    18    10    11   ar
    19    11    12   ar
    20    12    13   ar
    21    13    14   ar
    22    14    15   ar
    23    13    16    1
    24    16    17    1
    25    17    18    1
    26    18    19    1
    27     4     5    1
    28     5     6    1
    29    28    29   am
    30    29    30    2
    31    29    31    1
    32    31    32    1
    33    27    22   ar
    34     6     1    1
    35    32    25    1
    36    15    10   ar
    37    19    12    1
    38     7     8    1
@<TRIPOS>MOLECULE
*****
 34 38 0 0 0
SMALL
GASTEIGER

@<TRIPOS>ATOM
      1 N         143.0124  144.0100  162.1815 N.3     1  UNL1       -0.2711
      2 C         142.4587  144.8396  163.3018 C.3     1  UNL1        0.0735
      3 C         141.0031  145.2012  163.3189 C.3     1  UNL1        0.0331
      4 C         140.1011  144.7332  162.2156 C.3     1  UNL1        0.0570
      5 C         140.6548  143.9036  161.0952 C.3     1  UNL1        0.0331
      6 C         142.1104  143.5420  161.0782 C.3     1  UNL1        0.0735
      7 N         138.6454  145.0948  162.2326 N.3     1  UNL1       -0.2934
      8 H         138.3211  145.0560  161.2663 H       1  UNL1        0.1236
      9 C         137.6807  144.2839  163.0460 C.3     1  UNL1        0.1152
     10 C         137.8625  142.7998  163.1652 C.ar    1  UNL1        0.0782
     11 C         138.1305  142.1822  164.5056 C.ar    1  UNL1        0.0562
     12 C         138.3123  140.6980  164.6248 C.ar    1  UNL1        0.1752
     13 C         138.2261  139.8314  163.4034 C.ar    1  UNL1        0.1914
     14 C         137.9581  140.4490  162.0630 C.ar    1  UNL1        0.1384
     15 N         137.7763  141.9332  161.9439 N.ar    1  UNL1       -0.2434
     16 O         138.4079  138.3473  163.5226 O.3     1  UNL1       -0.4668
     17 C         138.6759  137.7297  164.8630 C.3     1  UNL1        0.2527
     18 C         138.7621  138.5962  166.0843 C.3     1  UNL1        0.2526
     19 O         138.5803  140.0805  165.9652 O.3     1  UNL1       -0.4683
     20 C         144.4681  143.6484  162.1645 C.3     1  UNL1        0.0942
     21 C         144.9707  142.5205  163.0161 C.3     1  UNL1        0.1155
     22 C         143.3310  138.9797  160.7748 C.ar    1  UNL1        0.1400
     23 C         142.3586  138.0537  161.4433 C.ar    1  UNL1        0.0375
     24 C         141.9328  138.3080  162.8589 C.ar    1  UNL1        0.0105
     25 C         142.4793  139.4882  163.6060 C.ar    1  UNL1        0.0395
     26 C         143.4517  140.4142  162.9375 C.ar    1  UNL1        0.0625
     27 C         143.8776  140.1599  161.5219 C.ar    1  UNL1        0.0523
     28 N         143.9983  141.5945  163.6846 N.am    1  UNL1       -0.2559
     29 C         143.5725  141.8488  165.1003 C.2     1  UNL1        0.2407
     30 O         144.1190  143.0291  165.8474 O.2     1  UNL1       -0.2736
     31 C         142.6000  140.9227  165.7688 C.3     1  UNL1        0.1475
     32 S         142.0535  139.7425  165.0217 S.3     1  UNL1       -0.1026
     33 C         142.7250  138.4879  158.2967 C.3     1  UNL1        0.2525
     34 O         143.7569  138.7254  159.3591 O.3     1  UNL1       -0.4714
@<TRIPOS>BOND
     1    33    34    1
     2    34    22    1
     3    22    23   ar
     4    23    24   ar
     5    24    25   ar
     6    25    26   ar
     7    26    27   ar
     8    26    28    1
     9    28    21    1
    10    21    20    1
    11    20     1    1
    12     1     2    1
    13     2     3    1
    14     3     4    1
    15     4     7    1
    16     7     9    1
    17     9    10    1
    18    10    11   ar
    19    11    12   ar
    20    12    13   ar
    21    13    14   ar
    22    14    15   ar
    23    13    16    1
    24    16    17    1
    25    17    18    1
    26    18    19    1
    27     4     5    1
    28     5     6    1
    29    28    29   am
    30    29    30    2
    31    29    31    1
    32    31    32    1
    33    27    22   ar
    34     6     1    1
    35    32    25    1
    36    15    10   ar
    37    19    12    1
    38     7     8    1
@<TRIPOS>MOLECULE
*****
 34 38 0 0 0
SMALL
GASTEIGER

@<TRIPOS>ATOM
      1 N         144.1538  139.6590  163.5593 N.3     1  UNL1       -0.2711
      2 C         143.4367  138.9379  164.6619 C.3     1  UNL1        0.0735
      3 C         142.2336  138.0980  164.3504 C.3     1  UNL1        0.0331
      4 C         141.7477  137.9791  162.9364 C.3     1  UNL1        0.0570
      5 C         142.4648  138.7002  161.8337 C.3     1  UNL1        0.0331
      6 C         143.6679  139.5402  162.1452 C.3     1  UNL1        0.0735
      7 N         140.5445  137.1391  162.6248 N.3     1  UNL1       -0.2934
      8 H         140.6354  136.2813  163.1691 H       1  UNL1        0.1236
      9 C         139.1680  137.6744  162.8866 C.3     1  UNL1        0.1152
     10 C         138.8654  139.1217  162.6340 C.ar    1  UNL1        0.0782
     11 C         138.4725  140.0156  163.7726 C.ar    1  UNL1        0.0562
     12 C         138.1700  141.4629  163.5200 C.ar    1  UNL1        0.1752
     13 C         138.2604  142.0163  162.1287 C.ar    1  UNL1        0.1914
     14 C         138.6533  141.1223  160.9901 C.ar    1  UNL1        0.1384
     15 N         138.9559  139.6750  161.2428 N.ar    1  UNL1       -0.2434
     16 O         137.9578  143.4635  161.8761 O.3     1  UNL1       -0.4668
     17 C         137.5649  144.3575  163.0147 C.3     1  UNL1        0.2527
     18 C         137.4745  143.8041  164.4060 C.3     1  UNL1        0.2526
     19 O         137.7770  142.3568  164.6587 O.3     1  UNL1       -0.4683
     20 C         145.3569  140.4990  163.8709 C.3     1  UNL1        0.0942
     21 C         145.1884  141.9436  164.2377 C.3     1  UNL1        0.1155
     22 C         142.1935  141.9146  167.5962 C.ar    1  UNL1        0.1400
     23 C         140.8622  142.5828  167.4197 C.ar    1  UNL1        0.0375
     24 C         140.5293  143.2608  166.1237 C.ar    1  UNL1        0.0105
     25 C         141.5276  143.2705  165.0042 C.ar    1  UNL1        0.0395
     26 C         142.8588  142.6022  165.1807 C.ar    1  UNL1        0.0625
     27 C         143.1917  141.9243  166.4767 C.ar    1  UNL1        0.0523
     28 N         143.8572  142.6119  164.0612 N.am    1  UNL1       -0.2559
     29 C         143.5242  143.2898  162.7653 C.2     1  UNL1        0.2407
     30 O         144.5225  143.2995  161.6458 O.2     1  UNL1       -0.2736
     31 C         142.1929  143.9581  162.5888 C.3     1  UNL1        0.1475
     32 S         141.1946  143.9484  163.7083 S.3     1  UNL1       -0.1026
     33 C         143.4914  141.8754  169.8464 C.3     1  UNL1        0.2525
     34 O         142.5264  141.2367  168.8922 O.3     1  UNL1       -0.4714
@<TRIPOS>BOND
     1    33    34    1
     2    34    22    1
     3    22    23   ar
     4    23    24   ar
     5    24    25   ar
     6    25    26   ar
     7    26    27   ar
     8    26    28    1
     9    28    21    1
    10    21    20    1
    11    20     1    1
    12     1     2    1
    13     2     3    1
    14     3     4    1
    15     4     7    1
    16     7     9    1
    17     9    10    1
    18    10    11   ar
    19    11    12   ar
    20    12    13   ar
    21    13    14   ar
    22    14    15   ar
    23    13    16    1
    24    16    17    1
    25    17    18    1
    26    18    19    1
    27     4     5    1
    28     5     6    1
    29    28    29   am
    30    29    30    2
    31    29    31    1
    32    31    32    1
    33    27    22   ar
    34     6     1    1
    35    32    25    1
    36    15    10   ar
    37    19    12    1
    38     7     8    1
@<TRIPOS>MOLECULE
*****
 34 38 0 0 0
SMALL
GASTEIGER

@<TRIPOS>ATOM
      1 N         140.2991  143.7893  164.0213 N.3     1  UNL1       -0.2711
      2 C         140.6898  142.9614  165.2095 C.3     1  UNL1        0.0735
      3 C         142.1391  142.7232  165.5137 C.3     1  UNL1        0.0331
      4 C         143.1978  143.3129  164.6297 C.3     1  UNL1        0.0570
      5 C         142.8070  144.1408  163.4415 C.3     1  UNL1        0.0331
      6 C         141.3577  144.3790  163.1373 C.3     1  UNL1        0.0735
      7 N         144.6472  143.0747  164.9339 N.3     1  UNL1       -0.2934
      8 H         144.7038  142.8255  165.9214 H       1  UNL1        0.1236
      9 C         145.4097  142.0269  164.1786 C.3     1  UNL1        0.1152
     10 C         144.6725  140.9837  163.3923 C.ar    1  UNL1        0.0782
     11 C         144.5955  141.0862  161.8978 C.ar    1  UNL1        0.0562
     12 C         143.8583  140.0430  161.1115 C.ar    1  UNL1        0.1752
     13 C         143.1982  138.8972  161.8197 C.ar    1  UNL1        0.1914
     14 C         143.2753  138.7947  163.3142 C.ar    1  UNL1        0.1384
     15 N         144.0125  139.8380  164.1005 N.ar    1  UNL1       -0.2434
     16 O         142.4610  137.8540  161.0334 O.3     1  UNL1       -0.4668
     17 C         142.3840  137.9565  159.5389 C.3     1  UNL1        0.2527
     18 C         143.0440  139.1022  158.8307 C.3     1  UNL1        0.2526
     19 O         143.7812  140.1455  159.6170 O.3     1  UNL1       -0.4683
     20 C         138.8496  144.0275  163.7171 C.3     1  UNL1        0.0942
     21 C         137.8751  142.8884  163.7704 C.3     1  UNL1        0.1155
     22 C         138.5466  139.0286  165.9842 C.ar    1  UNL1        0.1400
     23 C         138.8259  137.7665  165.2234 C.ar    1  UNL1        0.0375
     24 C         138.8814  137.7909  163.7246 C.ar    1  UNL1        0.0105
     25 C         138.6575  139.0775  162.9867 C.ar    1  UNL1        0.0395
     26 C         138.3783  140.3396  163.7475 C.ar    1  UNL1        0.0625
     27 C         138.3228  140.3152  165.2463 C.ar    1  UNL1        0.0523
     28 N         138.1544  141.6263  163.0095 N.am    1  UNL1       -0.2559
     29 C         138.2098  141.6507  161.5108 C.2     1  UNL1        0.2407
     30 O         137.9860  142.9372  160.7728 O.2     1  UNL1       -0.2736
     31 C         138.4892  140.3884  160.7499 C.3     1  UNL1        0.1475
     32 S         138.7130  139.1019  161.4879 S.3     1  UNL1       -0.1026
     33 C         139.3492  139.9410  168.2806 C.3     1  UNL1        0.2525
     34 O         138.4912  139.0042  167.4830 O.3     1  UNL1       -0.4714
@<TRIPOS>BOND
     1    33    34    1
     2    34    22    1
     3    22    23   ar
     4    23    24   ar
     5    24    25   ar
     6    25    26   ar
     7    26    27   ar
     8    26    28    1
     9    28    21    1
    10    21    20    1
    11    20     1    1
    12     1     2    1
    13     2     3    1
    14     3     4    1
    15     4     7    1
    16     7     9    1
    17     9    10    1
    18    10    11   ar
    19    11    12   ar
    20    12    13   ar
    21    13    14   ar
    22    14    15   ar
    23    13    16    1
    24    16    17    1
    25    17    18    1
    26    18    19    1
    27     4     5    1
    28     5     6    1
    29    28    29   am
    30    29    30    2
    31    29    31    1
    32    31    32    1
    33    27    22   ar
    34     6     1    1
    35    32    25    1
    36    15    10   ar
    37    19    12    1
    38     7     8    1
@<TRIPOS>MOLECULE
*****
 34 38 0 0 0
SMALL
GASTEIGER

@<TRIPOS>ATOM
      1 N         138.8256  144.1552  163.1120 N.3     1  UNL1       -0.2711
      2 C         139.4543  143.7826  164.4219 C.3     1  UNL1        0.0735
      3 C         139.1089  142.4773  165.0753 C.3     1  UNL1        0.0331
      4 C         138.1347  141.5447  164.4187 C.3     1  UNL1        0.0570
      5 C         137.5060  141.9173  163.1088 C.3     1  UNL1        0.0331
      6 C         137.8514  143.2226  162.4555 C.3     1  UNL1        0.0735
      7 N         137.7892  140.2393  165.0720 N.3     1  UNL1       -0.2934
      8 H         137.0534  139.8136  164.5083 H       1  UNL1        0.1236
      9 C         138.8473  139.1937  165.2643 C.3     1  UNL1        0.1152
     10 C         139.9153  139.3888  166.2992 C.ar    1  UNL1        0.0782
     11 C         139.5526  139.8877  167.6665 C.ar    1  UNL1        0.0562
     12 C         140.6206  140.0828  168.7014 C.ar    1  UNL1        0.1752
     13 C         142.0515  139.7791  168.3691 C.ar    1  UNL1        0.1914
     14 C         142.4143  139.2802  167.0018 C.ar    1  UNL1        0.1384
     15 N         141.3461  139.0851  165.9668 N.ar    1  UNL1       -0.2434
     16 O         143.1196  139.9743  169.4040 O.3     1  UNL1       -0.4668
     17 C         142.7568  140.4731  170.7713 C.3     1  UNL1        0.2527
     18 C         141.3260  140.7768  171.1037 C.3     1  UNL1        0.2526
     19 O         140.2579  140.5817  170.0688 O.3     1  UNL1       -0.4683
     20 C         139.1711  145.4606  162.4587 C.3     1  UNL1        0.0942
     21 C         140.6032  145.7964  162.1651 C.3     1  UNL1        0.1155
     22 C         144.0648  143.4483  163.8248 C.ar    1  UNL1        0.1400
     23 C         144.8726  142.5639  162.9220 C.ar    1  UNL1        0.0375
     24 C         144.5267  142.4622  161.4659 C.ar    1  UNL1        0.0105
     25 C         143.3729  143.2449  160.9127 C.ar    1  UNL1        0.0395
     26 C         142.5650  144.1293  161.8155 C.ar    1  UNL1        0.0625
     27 C         142.9110  144.2310  163.2715 C.ar    1  UNL1        0.0523
     28 N         141.4111  144.9120  161.2623 N.am    1  UNL1       -0.2559
     29 C         141.0652  144.8103  159.8063 C.2     1  UNL1        0.2407
     30 O         139.9114  145.5930  159.2531 O.2     1  UNL1       -0.2736
     31 C         141.8732  143.9258  158.9035 C.3     1  UNL1        0.1475
     32 S         143.0270  143.1432  159.4567 S.3     1  UNL1       -0.1026
     33 C         143.6668  142.7240  166.2879 C.3     1  UNL1        0.2525
     34 O         144.4107  143.5501  165.2808 O.3     1  UNL1       -0.4714
@<TRIPOS>BOND
     1    33    34    1
     2    34    22    1
     3    22    23   ar
     4    23    24   ar
     5    24    25   ar
     6    25    26   ar
     7    26    27   ar
     8    26    28    1
     9    28    21    1
    10    21    20    1
    11    20     1    1
    12     1     2    1
    13     2     3    1
    14     3     4    1
    15     4     7    1
    16     7     9    1
    17     9    10    1
    18    10    11   ar
    19    11    12   ar
    20    12    13   ar
    21    13    14   ar
    22    14    15   ar
    23    13    16    1
    24    16    17    1
    25    17    18    1
    26    18    19    1
    27     4     5    1
    28     5     6    1
    29    28    29   am
    30    29    30    2
    31    29    31    1
    32    31    32    1
    33    27    22   ar
    34     6     1    1
    35    32    25    1
    36    15    10   ar
    37    19    12    1
    38     7     8    1
