@<TRIPOS>MOLECULE
*****
 33 38 0 0 0
SMALL
GASTEIGER

@<TRIPOS>ATOM
      1 C         142.5833  137.9290  157.4186 C.ar    1  UNL1        0.1028
      2 C         142.7594  138.5821  156.0798 C.ar    1  UNL1        0.0131
      3 C         142.4366  140.0367  155.9066 C.ar    1  UNL1       -0.0015
      4 C         141.9182  141.1174  156.8719 C.ar    1  UNL1        0.0035
      5 C         142.0986  139.7676  157.5007 C.ar    1  UNL1        0.0358
      6 C         142.0844  138.7304  158.5842 C.ar    1  UNL1        0.1545
      7 O         141.8776  138.1639  159.9576 O.3     1  UNL1       -0.4528
      8 C         141.5098  138.1542  161.4119 C.ar    1  UNL1        0.1450
      9 C         141.3526  137.1487  163.0257 C.ar    1  UNL1        0.0372
     10 C         140.9280  137.4030  164.4416 C.ar    1  UNL1       -0.0014
     11 C         140.4773  138.7727  164.8549 C.ar    1  UNL1       -0.0243
     12 C         140.5312  139.7264  163.6984 C.ar    1  UNL1       -0.0052
     13 C         141.0370  138.7029  162.7254 C.ar    1  UNL1        0.0345
     14 C         140.0693  141.0689  164.1826 C.3     1  UNL1        0.0980
     15 C         139.7299  140.9449  165.6384 C.3     1  UNL1        0.0290
     16 C         139.9820  139.5258  166.0540 C.3     1  UNL1        0.0281
     17 N         139.7217  142.5259  164.1043 N.am    1  UNL1       -0.2763
     18 C         139.2210  143.6642  164.9431 C.3     1  UNL1        0.0956
     19 C         139.1363  144.8811  164.0702 C.3     1  UNL1        0.0466
     20 C         139.5555  144.9129  162.3919 C.3     1  UNL1        0.1337
     21 N         139.7623  145.4794  161.0185 N.3     1  UNL1       -0.2863
     22 C         140.1301  145.4891  159.5643 C.3     1  UNL1        0.1151
     23 C         140.6029  144.9404  158.2507 C.ar    1  UNL1        0.0739
     24 C         140.4601  146.2430  157.5209 C.ar    1  UNL1        0.1147
     25 N         140.8777  146.0246  156.0968 N.ar    1  UNL1       -0.2226
     26 C         141.2786  144.5870  155.9466 C.ar    1  UNL1        0.1786
     27 N         141.1087  143.9169  157.2778 N.ar    1  UNL1       -0.3070
     28 C         141.5706  142.5744  156.7936 C.3     1  UNL1        0.1341
     29 C         139.5412  143.8758  163.4756 C.2     1  UNL1        0.2401
     30 O         139.2949  144.1326  164.1888 O.2     1  UNL1       -0.2734
     31 H         140.3843  146.2375  161.2993 H       1  UNL1        0.1240
     32 N         143.2289  135.0198  157.7650 N.1     1  UNL1       -0.1907
     33 C         142.9061  136.4744  157.5918 C.1     1  UNL1        0.1035
@<TRIPOS>BOND
     1    32    33    3
     2    33     1    1
     3     1     2   ar
     4     2     3   ar
     5     3     4   ar
     6     4     5   ar
     7     5     6   ar
     8     6     7    1
     9     7     8    1
    10     8     9   ar
    11     9    10   ar
    12    10    11   ar
    13    11    12   ar
    14    12    13   ar
    15    12    14    1
    16    14    15    1
    17    15    16    1
    18    14    17    1
    19    17    18    1
    20    18    19    1
    21    20    19    1
    22    20    21    1
    23    21    22    1
    24    22    23    1
    25    23    24   ar
    26    24    25   ar
    27    25    26   ar
    28    26    27   ar
    29    27    28    1
    30    20    29    1
    31    29    30    2
    32     6     1   ar
    33    13     8   ar
    34    29    17   am
    35    28     4    1
    36    16    11    1
    37    27    23   ar
    38    21    31    1
@<TRIPOS>MOLECULE
*****
 33 38 0 0 0
SMALL
GASTEIGER

@<TRIPOS>ATOM
      1 C         140.2145  144.6466  156.7599 C.ar    1  UNL1        0.1028
      2 C         140.5679  144.0238  155.4420 C.ar    1  UNL1        0.0131
      3 C         141.0796  142.6146  155.3915 C.ar    1  UNL1       -0.0015
      4 C         141.3524  141.5591  156.4777 C.ar    1  UNL1        0.0035
      5 C         140.8317  142.8631  157.0053 C.ar    1  UNL1        0.0358
      6 C         140.3727  143.8604  158.0275 C.ar    1  UNL1        0.1545
      7 O         140.0453  144.3990  159.3886 O.3     1  UNL1       -0.4528
      8 C         139.8994  144.3970  160.8816 C.ar    1  UNL1        0.1450
      9 C         139.3991  145.3594  162.4512 C.ar    1  UNL1        0.0372
     10 C         139.3467  145.1017  163.9279 C.ar    1  UNL1       -0.0014
     11 C         139.7719  143.7703  164.4724 C.ar    1  UNL1       -0.0243
     12 C         140.2097  142.8546  163.3680 C.ar    1  UNL1       -0.0052
     13 C         139.9571  143.8546  162.2788 C.ar    1  UNL1        0.0345
     14 C         140.6187  141.5490  163.9830 C.3     1  UNL1        0.0980
     15 C         140.4338  141.6578  165.4675 C.3     1  UNL1        0.0290
     16 C         139.9104  143.0306  165.7701 C.3     1  UNL1        0.0281
     17 N         141.1219  140.1367  164.0302 N.am    1  UNL1       -0.2763
     18 C         141.4268  139.0264  164.9916 C.3     1  UNL1        0.0956
     19 C         141.9262  137.8532  164.2015 C.3     1  UNL1        0.0466
     20 C         142.1017  137.8355  162.4804 C.3     1  UNL1        0.1337
     21 N         142.4291  137.2969  161.1193 N.3     1  UNL1       -0.2863
     22 C         142.5750  137.2989  159.6264 C.3     1  UNL1        0.1151
     23 C         142.5173  137.8412  158.2290 C.ar    1  UNL1        0.0739
     24 C         143.0319  136.5837  157.5934 C.ar    1  UNL1        0.1147
     25 N         143.0973  136.8067  156.1115 N.ar    1  UNL1       -0.2226
     26 C         142.6231  138.2019  155.8313 C.ar    1  UNL1        0.1786
     27 N         142.2647  138.8413  157.1400 N.ar    1  UNL1       -0.3070
     28 C         141.8556  140.1469  156.5250 C.3     1  UNL1        0.1341
     29 C         141.6427  138.8327  163.5026 C.2     1  UNL1        0.2401
     30 O         141.6600  138.5781  164.2578 O.2     1  UNL1       -0.2734
     31 H         141.8313  136.4723  161.1751 H       1  UNL1        0.1240
     32 N         139.1912  147.4649  156.8608 N.1     1  UNL1       -0.1907
     33 C         139.7028  146.0558  156.8104 C.1     1  UNL1        0.1035
@<TRIPOS>BOND
     1    32    33    3
     2    33     1    1
     3     1     2   ar
     4     2     3   ar
     5     3     4   ar
     6     4     5   ar
     7     5     6   ar
     8     6     7    1
     9     7     8    1
    10     8     9   ar
    11     9    10   ar
    12    10    11   ar
    13    11    12   ar
    14    12    13   ar
    15    12    14    1
    16    14    15    1
    17    15    16    1
    18    14    17    1
    19    17    18    1
    20    18    19    1
    21    20    19    1
    22    20    21    1
    23    21    22    1
    24    22    23    1
    25    23    24   ar
    26    24    25   ar
    27    25    26   ar
    28    26    27   ar
    29    27    28    1
    30    20    29    1
    31    29    30    2
    32     6     1   ar
    33    13     8   ar
    34    29    17   am
    35    28     4    1
    36    16    11    1
    37    27    23   ar
    38    21    31    1
@<TRIPOS>MOLECULE
*****
 33 38 0 0 0
SMALL
GASTEIGER

@<TRIPOS>ATOM
      1 C         139.6054  146.9756  156.3919 C.ar    1  UNL1        0.1028
      2 C         139.7557  146.8262  154.9070 C.ar    1  UNL1        0.0131
      3 C         140.4695  145.6343  154.3415 C.ar    1  UNL1       -0.0015
      4 C         141.1475  144.4140  154.9894 C.ar    1  UNL1        0.0035
      5 C         140.5483  145.3769  155.9710 C.ar    1  UNL1        0.0358
      6 C         140.1688  145.9330  157.3115 C.ar    1  UNL1        0.1545
      7 O         140.0670  145.9977  158.8066 O.3     1  UNL1       -0.4528
      8 C         140.2583  145.5610  160.2289 C.ar    1  UNL1        0.1450
      9 C         139.9665  145.9278  162.0783 C.ar    1  UNL1        0.0372
     10 C         140.2864  145.2769  163.3913 C.ar    1  UNL1       -0.0014
     11 C         141.0364  143.9782  163.4214 C.ar    1  UNL1       -0.0243
     12 C         141.3636  143.5158  162.0325 C.ar    1  UNL1       -0.0052
     13 C         140.7136  144.6895  161.3616 C.ar    1  UNL1        0.0345
     14 C         142.1093  142.2187  162.1394 C.3     1  UNL1        0.0980
     15 C         142.2429  141.8793  163.5943 C.3     1  UNL1        0.0290
     16 C         141.5798  142.9667  164.3868 C.3     1  UNL1        0.0281
     17 N         142.8372  140.9956  161.6659 N.am    1  UNL1       -0.2763
     18 C         143.5272  139.7646  162.1746 C.3     1  UNL1        0.0956
     19 C         144.0261  138.9903  160.9908 C.3     1  UNL1        0.0466
     20 C         143.8158  139.4765  159.3438 C.3     1  UNL1        0.1337
     21 N         143.9176  139.4119  157.8486 N.3     1  UNL1       -0.2863
     22 C         143.7263  139.8486  156.4264 C.3     1  UNL1        0.1151
     23 C         143.2710  140.7200  155.2936 C.ar    1  UNL1        0.0739
     24 C         143.8327  139.8285  154.2261 C.ar    1  UNL1        0.1147
     25 N         143.5298  140.4511  152.8955 N.ar    1  UNL1       -0.2226
     26 C         142.7810  141.7275  153.1406 C.ar    1  UNL1        0.1786
     27 N         142.6210  141.8937  154.6227 N.ar    1  UNL1       -0.3070
     28 C         141.8753  143.1909  154.5159 C.3     1  UNL1        0.1341
     29 C         143.4364  140.0326  160.6843 C.2     1  UNL1        0.2401
     30 O         143.6628  139.5946  161.3106 O.2     1  UNL1       -0.2734
     31 H         143.4921  138.4908  157.7442 H       1  UNL1        0.1240
     32 N         138.1779  149.3595  157.5230 N.1     1  UNL1       -0.1907
     33 C         138.8916  148.1676  156.9574 C.1     1  UNL1        0.1035
@<TRIPOS>BOND
     1    32    33    3
     2    33     1    1
     3     1     2   ar
     4     2     3   ar
     5     3     4   ar
     6     4     5   ar
     7     5     6   ar
     8     6     7    1
     9     7     8    1
    10     8     9   ar
    11     9    10   ar
    12    10    11   ar
    13    11    12   ar
    14    12    13   ar
    15    12    14    1
    16    14    15    1
    17    15    16    1
    18    14    17    1
    19    17    18    1
    20    18    19    1
    21    20    19    1
    22    20    21    1
    23    21    22    1
    24    22    23    1
    25    23    24   ar
    26    24    25   ar
    27    25    26   ar
    28    26    27   ar
    29    27    28    1
    30    20    29    1
    31    29    30    2
    32     6     1   ar
    33    13     8   ar
    34    29    17   am
    35    28     4    1
    36    16    11    1
    37    27    23   ar
    38    21    31    1
@<TRIPOS>MOLECULE
*****
 33 38 0 0 0
SMALL
GASTEIGER

@<TRIPOS>ATOM
      1 C         143.1886  138.8276  155.5493 C.ar    1  UNL1        0.1028
      2 C         142.7997  139.3987  154.2180 C.ar    1  UNL1        0.0131
      3 C         142.1352  140.7414  154.1430 C.ar    1  UNL1       -0.0015
      4 C         141.7202  141.7666  155.2132 C.ar    1  UNL1        0.0035
      5 C         142.3704  140.5324  155.7644 C.ar    1  UNL1        0.0358
      6 C         142.9131  139.5991  156.8058 C.ar    1  UNL1        0.1545
      7 O         143.2656  139.1091  158.1789 O.3     1  UNL1       -0.4528
      8 C         143.3744  139.1367  159.6748 C.ar    1  UNL1        0.1450
      9 C         143.9410  138.2461  161.2641 C.ar    1  UNL1        0.0372
     10 C         143.9287  138.5173  162.7393 C.ar    1  UNL1       -0.0014
     11 C         143.3445  139.7962  163.2619 C.ar    1  UNL1       -0.0243
     12 C         142.8340  140.6503  162.1394 C.ar    1  UNL1       -0.0052
     13 C         143.2228  139.6779  161.0654 C.ar    1  UNL1        0.0345
     14 C         142.2670  141.9057  162.7331 C.3     1  UNL1        0.0980
     15 C         142.4271  141.8276  164.2224 C.3     1  UNL1        0.0290
     16 C         143.0930  140.5239  164.5493 C.3     1  UNL1        0.0281
     17 N         141.6083  143.2532  162.7560 N.am    1  UNL1       -0.2763
     18 C         141.1583  144.3285  163.7001 C.3     1  UNL1        0.0956
     19 C         140.5502  145.4334  162.8882 C.3     1  UNL1        0.0466
     20 C         140.4154  145.4206  161.1634 C.3     1  UNL1        0.1337
     21 N         140.0628  145.9107  159.7902 N.3     1  UNL1       -0.2863
     22 C         139.9540  145.8830  158.2944 C.3     1  UNL1        0.1151
     23 C         140.1056  145.3418  156.9037 C.ar    1  UNL1        0.0739
     24 C         139.4693  146.5298  156.2451 C.ar    1  UNL1        0.1147
     25 N         139.4649  146.2917  154.7641 N.ar    1  UNL1       -0.2226
     26 C         140.0985  144.9565  154.5074 C.ar    1  UNL1        0.1786
     27 N         140.4945  144.3695  155.8298 N.ar    1  UNL1       -0.3070
     28 C         141.0615  143.1140  155.2361 C.3     1  UNL1        0.1341
     29 C         140.9581  144.4875  162.2049 C.2     1  UNL1        0.2401
     30 O         140.8942  144.7432  162.9571 O.2     1  UNL1       -0.2734
     31 H         140.5633  146.7973  159.8526 H       1  UNL1        0.1240
     32 N         144.5174  136.1421  155.6993 N.1     1  UNL1       -0.1907
     33 C         143.8530  137.4848  155.6243 C.1     1  UNL1        0.1035
@<TRIPOS>BOND
     1    32    33    3
     2    33     1    1
     3     1     2   ar
     4     2     3   ar
     5     3     4   ar
     6     4     5   ar
     7     5     6   ar
     8     6     7    1
     9     7     8    1
    10     8     9   ar
    11     9    10   ar
    12    10    11   ar
    13    11    12   ar
    14    12    13   ar
    15    12    14    1
    16    14    15    1
    17    15    16    1
    18    14    17    1
    19    17    18    1
    20    18    19    1
    21    20    19    1
    22    20    21    1
    23    21    22    1
    24    22    23    1
    25    23    24   ar
    26    24    25   ar
    27    25    26   ar
    28    26    27   ar
    29    27    28    1
    30    20    29    1
    31    29    30    2
    32     6     1   ar
    33    13     8   ar
    34    29    17   am
    35    28     4    1
    36    16    11    1
    37    27    23   ar
    38    21    31    1
@<TRIPOS>MOLECULE
*****
 33 38 0 0 0
SMALL
GASTEIGER

@<TRIPOS>ATOM
      1 C         145.3091  142.3886  157.1181 C.ar    1  UNL1        0.1028
      2 C         144.7603  142.3881  155.7222 C.ar    1  UNL1        0.0131
      3 C         143.3032  142.1187  155.4892 C.ar    1  UNL1       -0.0015
      4 C         142.1292  141.8140  156.4364 C.ar    1  UNL1        0.0035
      5 C         143.4421  142.0193  157.1319 C.ar    1  UNL1        0.0358
      6 C         144.4009  142.1196  158.2812 C.ar    1  UNL1        0.1545
      7 O         144.8591  142.0998  159.7093 O.3     1  UNL1       -0.4528
      8 C         144.7473  141.9627  161.1989 C.ar    1  UNL1        0.1450
      9 C         145.6296  142.0062  162.8900 C.ar    1  UNL1        0.0372
     10 C         145.2540  141.8209  164.3303 C.ar    1  UNL1       -0.0014
     11 C         143.8337  141.5121  164.7011 C.ar    1  UNL1       -0.0243
     12 C         142.9656  141.4351  163.4803 C.ar    1  UNL1       -0.0052
     13 C         144.0824  141.7293  162.5230 C.ar    1  UNL1        0.0345
     14 C         141.5669  141.1249  163.9248 C.3     1  UNL1        0.0980
     15 C         141.5706  141.0102  165.4204 C.3     1  UNL1        0.0290
     16 C         142.9715  141.2495  165.9002 C.3     1  UNL1        0.0281
     17 N         140.0994  140.8460  163.7889 N.am    1  UNL1       -0.2763
     18 C         138.8776  140.5420  164.6044 C.3     1  UNL1        0.0956
     19 C         137.7196  140.3862  163.6639 C.3     1  UNL1        0.0466
     20 C         137.8277  140.5403  161.9441 C.3     1  UNL1        0.1337
     21 N         137.3694  140.5602  160.5159 N.3     1  UNL1       -0.2863
     22 C         137.4812  140.6973  159.0264 C.3     1  UNL1        0.1151
     23 C         138.1461  140.9307  157.7022 C.ar    1  UNL1        0.0739
     24 C         136.8893  140.7443  156.9050 C.ar    1  UNL1        0.1147
     25 N         137.2293  140.9233  155.4550 N.ar    1  UNL1       -0.2226
     26 C         138.6963  141.2203  155.3562 C.ar    1  UNL1        0.1786
     27 N         139.2629  141.2248  156.7450 N.ar    1  UNL1       -0.3070
     28 C         140.6616  141.5350  156.3005 C.3     1  UNL1        0.1341
     29 C         138.7863  140.6407  163.0934 C.2     1  UNL1        0.2401
     30 O         138.4669  140.5220  163.8140 O.2     1  UNL1       -0.2734
     31 H         136.6350  141.2570  160.6406 H       1  UNL1        0.1240
     32 N         148.2233  142.9273  157.5842 N.1     1  UNL1       -0.1907
     33 C         146.7662  142.6580  157.3512 C.1     1  UNL1        0.1035
@<TRIPOS>BOND
     1    32    33    3
     2    33     1    1
     3     1     2   ar
     4     2     3   ar
     5     3     4   ar
     6     4     5   ar
     7     5     6   ar
     8     6     7    1
     9     7     8    1
    10     8     9   ar
    11     9    10   ar
    12    10    11   ar
    13    11    12   ar
    14    12    13   ar
    15    12    14    1
    16    14    15    1
    17    15    16    1
    18    14    17    1
    19    17    18    1
    20    18    19    1
    21    20    19    1
    22    20    21    1
    23    21    22    1
    24    22    23    1
    25    23    24   ar
    26    24    25   ar
    27    25    26   ar
    28    26    27   ar
    29    27    28    1
    30    20    29    1
    31    29    30    2
    32     6     1   ar
    33    13     8   ar
    34    29    17   am
    35    28     4    1
    36    16    11    1
    37    27    23   ar
    38    21    31    1
@<TRIPOS>MOLECULE
*****
 33 38 0 0 0
SMALL
GASTEIGER

@<TRIPOS>ATOM
      1 C         138.9057  143.0094  155.5197 C.ar    1  UNL1        0.1028
      2 C         138.8892  141.9871  154.4222 C.ar    1  UNL1        0.0131
      3 C         139.5489  140.6557  154.6274 C.ar    1  UNL1       -0.0015
      4 C         140.3104  140.0348  155.8119 C.ar    1  UNL1        0.0035
      5 C         139.8143  141.4279  156.0631 C.ar    1  UNL1        0.0358
      6 C         139.5820  142.7005  156.8224 C.ar    1  UNL1        0.1545
      7 O         139.6489  143.6586  157.9745 O.3     1  UNL1       -0.4528
      8 C         140.0049  144.1567  159.3440 C.ar    1  UNL1        0.1450
      9 C         139.9194  145.5800  160.6116 C.ar    1  UNL1        0.0372
     10 C         140.3934  145.8341  162.0118 C.ar    1  UNL1       -0.0014
     11 C         141.1576  144.7744  162.7488 C.ar    1  UNL1       -0.0243
     12 C         141.3315  143.5504  161.8994 C.ar    1  UNL1       -0.0052
     13 C         140.5957  144.1186  160.7221 C.ar    1  UNL1        0.0345
     14 C         142.1001  142.5385  162.6964 C.3     1  UNL1        0.0980
     15 C         142.4013  143.1371  164.0384 C.3     1  UNL1        0.0290
     16 C         141.8188  144.5190  164.0708 C.3     1  UNL1        0.0281
     17 N         142.7846  141.2368  162.9918 N.am    1  UNL1       -0.2763
     18 C         143.5425  140.5229  164.0716 C.3     1  UNL1        0.0956
     19 C         143.9138  139.1640  163.5564 C.3     1  UNL1        0.0466
     20 C         143.5130  138.5712  161.9813 C.3     1  UNL1        0.1337
     21 N         143.4460  137.6130  160.8292 N.3     1  UNL1       -0.2863
     22 C         143.0901  137.1150  159.4598 C.3     1  UNL1        0.1151
     23 C         142.4992  137.1529  158.0815 C.ar    1  UNL1        0.0739
     24 C         142.9475  135.7671  157.7231 C.ar    1  UNL1        0.1147
     25 N         142.4888  135.4789  156.3243 N.ar    1  UNL1       -0.2226
     26 C         141.7571  136.6865  155.8183 C.ar    1  UNL1        0.1786
     27 N         141.7635  137.7212  156.9043 N.ar    1  UNL1       -0.3070
     28 C         140.9949  138.7332  156.1073 C.3     1  UNL1        0.1341
     29 C         143.2807  139.8437  162.7407 C.2     1  UNL1        0.2401
     30 O         143.5817  139.8591  163.4787 O.2     1  UNL1       -0.2734
     31 H         143.0227  136.8419  161.3455 H       1  UNL1        0.1240
     32 N         137.5864  145.6723  155.1093 N.1     1  UNL1       -0.1907
     33 C         138.2460  144.3409  155.3145 C.1     1  UNL1        0.1035
@<TRIPOS>BOND
     1    32    33    3
     2    33     1    1
     3     1     2   ar
     4     2     3   ar
     5     3     4   ar
     6     4     5   ar
     7     5     6   ar
     8     6     7    1
     9     7     8    1
    10     8     9   ar
    11     9    10   ar
    12    10    11   ar
    13    11    12   ar
    14    12    13   ar
    15    12    14    1
    16    14    15    1
    17    15    16    1
    18    14    17    1
    19    17    18    1
    20    18    19    1
    21    20    19    1
    22    20    21    1
    23    21    22    1
    24    22    23    1
    25    23    24   ar
    26    24    25   ar
    27    25    26   ar
    28    26    27   ar
    29    27    28    1
    30    20    29    1
    31    29    30    2
    32     6     1   ar
    33    13     8   ar
    34    29    17   am
    35    28     4    1
    36    16    11    1
    37    27    23   ar
    38    21    31    1
@<TRIPOS>MOLECULE
*****
 33 38 0 0 0
SMALL
GASTEIGER

@<TRIPOS>ATOM
      1 C         135.4685  140.6984  156.4503 C.ar    1  UNL1        0.1028
      2 C         135.3314  141.3741  155.1182 C.ar    1  UNL1        0.0131
      3 C         136.4761  142.1642  154.5566 C.ar    1  UNL1       -0.0015
      4 C         137.8914  142.4728  155.0763 C.ar    1  UNL1        0.0035
      5 C         137.0708  141.6205  155.9983 C.ar    1  UNL1        0.0358
      6 C         136.7503  140.8127  157.2209 C.ar    1  UNL1        0.1545
      7 O         136.9788  140.1726  158.5580 O.3     1  UNL1       -0.4528
      8 C         137.7214  139.7974  159.8062 C.ar    1  UNL1        0.1450
      9 C         137.7015  138.8710  161.4739 C.ar    1  UNL1        0.0372
     10 C         138.6484  138.6410  162.6143 C.ar    1  UNL1       -0.0014
     11 C         140.0239  139.2383  162.5791 C.ar    1  UNL1       -0.0243
     12 C         140.2359  140.0218  161.3177 C.ar    1  UNL1       -0.0052
     13 C         138.8652  139.7445  160.7752 C.ar    1  UNL1        0.0345
     14 C         141.6249  140.5870  161.3510 C.3     1  UNL1        0.0980
     15 C         142.2714  140.1529  162.6330 C.3     1  UNL1        0.0290
     16 C         141.2820  139.3193  163.3920 C.3     1  UNL1        0.0281
     17 N         142.8208  141.3542  160.8700 N.am    1  UNL1       -0.2763
     18 C         144.2197  141.7246  161.2650 C.3     1  UNL1        0.0956
     19 C         144.8014  142.5708  160.1717 C.3     1  UNL1        0.0466
     20 C         143.9619  143.0143  158.7254 C.3     1  UNL1        0.1337
     21 N         143.7334  143.6545  157.3882 N.3     1  UNL1       -0.2863
     22 C         142.9907  144.0296  156.1401 C.3     1  UNL1        0.1151
     23 C         141.8470  144.0826  155.1710 C.ar    1  UNL1        0.0739
     24 C         142.5754  144.9364  154.1759 C.ar    1  UNL1        0.1147
     25 N         141.6548  145.1869  153.0184 N.ar    1  UNL1       -0.2226
     26 C         140.3575  144.4878  153.2981 C.ar    1  UNL1        0.1786
     27 N         140.4763  143.8053  154.6286 N.ar    1  UNL1       -0.3070
     28 C         139.0872  143.2400  154.5953 C.3     1  UNL1        0.1341
     29 C         143.6414  142.2066  159.9480 C.2     1  UNL1        0.2401
     30 O         144.2276  142.1568  160.4859 O.2     1  UNL1       -0.2734
     31 H         144.5384  143.2365  156.9217 H       1  UNL1        0.1240
     32 N         133.1791  139.1181  157.5734 N.1     1  UNL1       -0.1907
     33 C         134.3238  139.9083  157.0119 C.1     1  UNL1        0.1035
@<TRIPOS>BOND
     1    32    33    3
     2    33     1    1
     3     1     2   ar
     4     2     3   ar
     5     3     4   ar
     6     4     5   ar
     7     5     6   ar
     8     6     7    1
     9     7     8    1
    10     8     9   ar
    11     9    10   ar
    12    10    11   ar
    13    11    12   ar
    14    12    13   ar
    15    12    14    1
    16    14    15    1
    17    15    16    1
    18    14    17    1
    19    17    18    1
    20    18    19    1
    21    20    19    1
    22    20    21    1
    23    21    22    1
    24    22    23    1
    25    23    24   ar
    26    24    25   ar
    27    25    26   ar
    28    26    27   ar
    29    27    28    1
    30    20    29    1
    31    29    30    2
    32     6     1   ar
    33    13     8   ar
    34    29    17   am
    35    28     4    1
    36    16    11    1
    37    27    23   ar
    38    21    31    1
@<TRIPOS>MOLECULE
*****
 33 38 0 0 0
SMALL
GASTEIGER

@<TRIPOS>ATOM
      1 C         143.7090  141.9381  160.9412 C.ar    1  UNL1        0.1028
      2 C         144.3403  140.6270  161.3049 C.ar    1  UNL1        0.0131
      3 C         144.0633  139.4062  160.4784 C.ar    1  UNL1       -0.0015
      4 C         143.2020  139.1612  159.2268 C.ar    1  UNL1        0.0035
      5 C         143.1785  140.5772  159.7210 C.ar    1  UNL1        0.0358
      6 C         142.8006  142.0286  159.7510 C.ar    1  UNL1        0.1545
      7 O         142.1259  143.2942  159.3119 O.3     1  UNL1       -0.4528
      8 C         141.2569  144.1816  158.4706 C.ar    1  UNL1        0.1450
      9 C         140.5530  145.9294  158.1714 C.ar    1  UNL1        0.0372
     10 C         139.6379  146.5911  157.1841 C.ar    1  UNL1       -0.0014
     11 C         139.0317  145.7904  156.0700 C.ar    1  UNL1       -0.0243
     12 C         139.4751  144.3590  156.1358 C.ar    1  UNL1       -0.0052
     13 C         140.3261  144.5554  157.3554 C.ar    1  UNL1        0.0345
     14 C         138.8335  143.6220  154.9977 C.3     1  UNL1        0.0980
     15 C         137.9935  144.5980  154.2284 C.3     1  UNL1        0.0290
     16 C         138.1160  145.9382  154.8911 C.3     1  UNL1        0.0281
     17 N         138.4990  142.4569  154.1142 N.am    1  UNL1       -0.2763
     18 C         137.6984  142.0911  152.8997 C.3     1  UNL1        0.0956
     19 C         137.9030  140.6294  152.6325 C.3     1  UNL1        0.0466
     20 C         138.9003  139.5895  153.5901 C.3     1  UNL1        0.1337
     21 N         139.5751  138.3239  154.0292 N.3     1  UNL1       -0.2863
     22 C         140.4441  137.4366  154.8704 C.3     1  UNL1        0.1151
     23 C         141.3749  137.0626  155.9857 C.ar    1  UNL1        0.0739
     24 C         141.4713  135.6217  155.5804 C.ar    1  UNL1        0.1147
     25 N         142.3818  134.9276  156.5495 N.ar    1  UNL1       -0.2226
     26 C         142.8482  135.9396  157.5537 C.ar    1  UNL1        0.1786
     27 N         142.2258  137.2591  157.2052 N.ar    1  UNL1       -0.3070
     28 C         142.8674  137.9961  158.3434 C.3     1  UNL1        0.1341
     29 C         138.5225  141.0408  153.6199 C.2     1  UNL1        0.2401
     30 O         138.0278  141.2754  153.0405 O.2     1  UNL1       -0.2734
     31 H         140.0327  138.1231  153.1400 H       1  UNL1        0.1240
     32 N         144.2628  144.3796  162.5942 N.1     1  UNL1       -0.1907
     33 C         143.9859  143.1588  161.7677 C.1     1  UNL1        0.1035
@<TRIPOS>BOND
     1    32    33    3
     2    33     1    1
     3     1     2   ar
     4     2     3   ar
     5     3     4   ar
     6     4     5   ar
     7     5     6   ar
     8     6     7    1
     9     7     8    1
    10     8     9   ar
    11     9    10   ar
    12    10    11   ar
    13    11    12   ar
    14    12    13   ar
    15    12    14    1
    16    14    15    1
    17    15    16    1
    18    14    17    1
    19    17    18    1
    20    18    19    1
    21    20    19    1
    22    20    21    1
    23    21    22    1
    24    22    23    1
    25    23    24   ar
    26    24    25   ar
    27    25    26   ar
    28    26    27   ar
    29    27    28    1
    30    20    29    1
    31    29    30    2
    32     6     1   ar
    33    13     8   ar
    34    29    17   am
    35    28     4    1
    36    16    11    1
    37    27    23   ar
    38    21    31    1
@<TRIPOS>MOLECULE
*****
 33 38 0 0 0
SMALL
GASTEIGER

@<TRIPOS>ATOM
      1 C         140.5742  145.4299  154.9579 C.ar    1  UNL1        0.1028
      2 C         140.1334  146.6265  155.7476 C.ar    1  UNL1        0.0131
      3 C         140.0432  146.5468  157.2428 C.ar    1  UNL1       -0.0015
      4 C         140.3235  145.4183  158.2509 C.ar    1  UNL1        0.0035
      5 C         140.5557  145.0348  156.8195 C.ar    1  UNL1        0.0358
      6 C         140.9248  144.1534  155.6632 C.ar    1  UNL1        0.1545
      7 O         141.3744  142.9081  154.9583 O.3     1  UNL1       -0.4528
      8 C         141.8363  141.4884  154.8119 C.ar    1  UNL1        0.1450
      9 C         142.3729  140.0833  153.6381 C.ar    1  UNL1        0.0372
     10 C         142.8162  138.6559  153.7637 C.ar    1  UNL1       -0.0014
     11 C         142.9142  138.0174  155.1175 C.ar    1  UNL1       -0.0243
     12 C         142.5240  138.9845  156.1957 C.ar    1  UNL1       -0.0052
     13 C         142.2399  140.1107  155.2465 C.ar    1  UNL1        0.0345
     14 C         142.6452  138.2814  157.5152 C.3     1  UNL1        0.0980
     15 C         143.1104  136.8797  157.2524 C.3     1  UNL1        0.0290
     16 C         143.2766  136.7165  155.7706 C.3     1  UNL1        0.0281
     17 N         142.5852  138.1083  159.0039 N.am    1  UNL1       -0.2763
     18 C         142.8239  137.0936  160.0825 C.3     1  UNL1        0.0956
     19 C         142.5173  137.7384  161.4016 C.3     1  UNL1        0.0466
     20 C         141.9839  139.3732  161.5916 C.3     1  UNL1        0.1337
     21 N         141.5342  140.6186  162.2966 N.3     1  UNL1       -0.2863
     22 C         141.0724  142.0382  162.4429 C.3     1  UNL1        0.1151
     23 C         140.6687  143.4160  162.0084 C.ar    1  UNL1        0.0739
     24 C         140.4055  143.9062  163.4014 C.ar    1  UNL1        0.1147
     25 N         139.9588  145.3354  163.3130 N.ar    1  UNL1       -0.2226
     26 C         139.9459  145.7284  161.8654 C.ar    1  UNL1        0.1786
     27 N         140.3846  144.5421  161.0591 N.ar    1  UNL1       -0.3070
     28 C         140.2634  145.2452  159.7397 C.3     1  UNL1        0.1341
     29 C         142.3529  138.4917  160.4354 C.2     1  UNL1        0.2401
     30 O         142.5731  137.7506  160.6295 O.2     1  UNL1       -0.2734
     31 H         142.3381  140.6944  162.9198 H       1  UNL1        0.1240
     32 N         140.7546  145.5894  151.9676 N.1     1  UNL1       -0.1907
     33 C         140.6644  145.5097  153.4627 C.1     1  UNL1        0.1035
@<TRIPOS>BOND
     1    32    33    3
     2    33     1    1
     3     1     2   ar
     4     2     3   ar
     5     3     4   ar
     6     4     5   ar
     7     5     6   ar
     8     6     7    1
     9     7     8    1
    10     8     9   ar
    11     9    10   ar
    12    10    11   ar
    13    11    12   ar
    14    12    13   ar
    15    12    14    1
    16    14    15    1
    17    15    16    1
    18    14    17    1
    19    17    18    1
    20    18    19    1
    21    20    19    1
    22    20    21    1
    23    21    22    1
    24    22    23    1
    25    23    24   ar
    26    24    25   ar
    27    25    26   ar
    28    26    27   ar
    29    27    28    1
    30    20    29    1
    31    29    30    2
    32     6     1   ar
    33    13     8   ar
    34    29    17   am
    35    28     4    1
    36    16    11    1
    37    27    23   ar
    38    21    31    1
