@<TRIPOS>MOLECULE
*****
 31 35 0 0 0
SMALL
GASTEIGER

@<TRIPOS>ATOM
      1 C         141.5979  142.9455  165.5207 C.ar    1  UNL1        0.0720
      2 C         140.4792  142.9932  166.5188 C.ar    1  UNL1        0.1480
      3 O         139.3639  143.8027  165.9266 O.2     1  UNL1       -0.4534
      4 C         139.7933  144.2554  164.5625 C.ar    1  UNL1        0.1453
      5 C         139.1054  145.0815  163.5165 C.ar    1  UNL1        0.0406
      6 C         139.7983  145.3779  162.2196 C.ar    1  UNL1        0.0395
      7 C         141.1790  144.8482  161.9687 C.ar    1  UNL1        0.1311
      8 O         141.8719  145.1446  160.6717 O.3     1  UNL1       -0.5058
      9 C         141.8669  144.0220  163.0148 C.ar    1  UNL1        0.0307
     10 C         141.1740  143.7256  164.3117 C.ar    1  UNL1        0.0405
     11 H         141.4422  145.6607  160.0183 H       1  UNL1        0.2922
     12 C         140.4763  142.3450  167.8716 C.ar    1  UNL1        0.0349
     13 C         140.1425  140.8888  168.0048 C.ar    1  UNL1        0.0061
     14 C         140.1396  140.2407  169.3575 C.ar    1  UNL1        0.0367
     15 C         140.4706  141.0488  170.5771 C.ar    1  UNL1        0.1337
     16 O         140.4677  140.4007  171.9298 O.3     1  UNL1       -0.5055
     17 C         140.8044  142.5051  170.4439 C.ar    1  UNL1        0.0367
     18 C         140.8073  143.1532  169.0911 C.ar    1  UNL1        0.0061
     19 H         140.2591  139.4910  172.0130 H       1  UNL1        0.2922
     20 C         142.9779  140.7458  165.6062 C.3     1  UNL1        0.0774
     21 C         142.9102  142.2414  165.7001 C.2     1  UNL1        0.1765
     22 O         144.1548  143.0327  165.9734 O.2     1  UNL1       -0.2912
     23 C         143.2476  143.4923  162.7639 C.3     1  UNL1        0.1023
     24 N         143.4409  142.0566  162.3746 N.3     1  UNL1       -0.2687
     25 C         144.7408  141.3081  162.3829 C.3     1  UNL1        0.0726
     26 C         144.4715  139.9063  161.9221 C.3     1  UNL1        0.0235
     27 C         143.0051  139.7883  161.6290 C.3     1  UNL1        0.0707
     28 C         141.5871  139.4473  161.2787 C.3     1  UNL1        0.1458
     29 O         142.0073  138.0477  160.9401 O.3     1  UNL1       -0.3535
     30 C         143.4254  138.3889  161.2904 C.3     1  UNL1        0.1458
     31 C         142.3682  141.1173  161.9087 C.3     1  UNL1        0.0772
@<TRIPOS>BOND
     1    20    21    1
     2    21    22    2
     3    21     1    1
     4     1     2   ar
     5     2    12    1
     6    12    13   ar
     7    13    14   ar
     8    14    15   ar
     9    15    16    1
    10    15    17   ar
    11    17    18   ar
    12     2     3   ar
    13     3     4   ar
    14     4     5   ar
    15     5     6   ar
    16     6     7   ar
    17     7     8    1
    18     7     9   ar
    19     9    23    1
    20    23    24    1
    21    24    25    1
    22    25    26    1
    23    26    27    1
    24    27    28    1
    25    28    29    1
    26    29    30    1
    27    27    31    1
    28     9    10   ar
    29    10     1   ar
    30    18    12   ar
    31    10     4   ar
    32    31    24    1
    33    30    27    1
    34    16    19    1
    35     8    11    1
@<TRIPOS>MOLECULE
*****
 31 35 0 0 0
SMALL
GASTEIGER

@<TRIPOS>ATOM
      1 C         139.5751  141.4279  165.9304 C.ar    1  UNL1        0.0720
      2 C         140.1255  142.3114  167.0104 C.ar    1  UNL1        0.1480
      3 O         139.9853  143.7355  166.5607 O.2     1  UNL1       -0.4534
      4 C         139.3482  143.7322  165.2027 C.ar    1  UNL1        0.1453
      5 C         138.9662  144.8435  164.2705 C.ar    1  UNL1        0.0406
      6 C         138.3307  144.5286  162.9488 C.ar    1  UNL1        0.0395
      7 C         138.0772  143.1024  162.5593 C.ar    1  UNL1        0.1311
      8 O         137.4416  142.7876  161.2375 O.3     1  UNL1       -0.5058
      9 C         138.4592  141.9911  163.4914 C.ar    1  UNL1        0.0307
     10 C         139.0947  142.3060  164.8131 C.ar    1  UNL1        0.0405
     11 H         137.2030  143.4819  160.6552 H       1  UNL1        0.2922
     12 C         140.7130  141.8516  168.3117 C.ar    1  UNL1        0.0349
     13 C         142.1663  142.0830  168.6020 C.ar    1  UNL1        0.0061
     14 C         142.7538  141.6232  169.9033 C.ar    1  UNL1        0.0367
     15 C         141.8880  140.9318  170.9143 C.ar    1  UNL1        0.1337
     16 O         142.4754  140.4720  172.2157 O.3     1  UNL1       -0.5055
     17 C         140.4347  140.7004  170.6241 C.ar    1  UNL1        0.0367
     18 C         139.8472  141.1602  169.3228 C.ar    1  UNL1        0.0061
     19 H         143.3833  140.6166  172.3969 H       1  UNL1        0.2922
     20 C         138.2451  139.2375  166.3589 C.3     1  UNL1        0.0774
     21 C         139.5155  139.9294  165.9620 C.2     1  UNL1        0.1765
     22 O         140.7262  139.1228  165.5968 O.2     1  UNL1       -0.2912
     23 C         138.2057  140.5649  163.1019 C.3     1  UNL1        0.1023
     24 N         139.3370  139.7073  162.6175 N.3     1  UNL1       -0.2687
     25 C         139.3256  138.2112  162.5094 C.3     1  UNL1        0.0726
     26 C         140.6599  137.7744  161.9813 C.3     1  UNL1        0.0235
     27 C         141.4960  139.0006  161.7629 C.3     1  UNL1        0.0707
     28 C         142.4986  140.0774  161.4715 C.3     1  UNL1        0.1458
     29 O         143.4852  139.0385  161.0272 O.3     1  UNL1       -0.3535
     30 C         142.4825  137.9617  161.3187 C.3     1  UNL1        0.1458
     31 C         140.6783  140.1952  162.1561 C.3     1  UNL1        0.0772
@<TRIPOS>BOND
     1    20    21    1
     2    21    22    2
     3    21     1    1
     4     1     2   ar
     5     2    12    1
     6    12    13   ar
     7    13    14   ar
     8    14    15   ar
     9    15    16    1
    10    15    17   ar
    11    17    18   ar
    12     2     3   ar
    13     3     4   ar
    14     4     5   ar
    15     5     6   ar
    16     6     7   ar
    17     7     8    1
    18     7     9   ar
    19     9    23    1
    20    23    24    1
    21    24    25    1
    22    25    26    1
    23    26    27    1
    24    27    28    1
    25    28    29    1
    26    29    30    1
    27    27    31    1
    28     9    10   ar
    29    10     1   ar
    30    18    12   ar
    31    10     4   ar
    32    31    24    1
    33    30    27    1
    34    16    19    1
    35     8    11    1
@<TRIPOS>MOLECULE
*****
 31 35 0 0 0
SMALL
GASTEIGER

@<TRIPOS>ATOM
      1 C         140.0561  141.7626  165.6018 C.ar    1  UNL1        0.0720
      2 C         140.5999  141.1284  166.8476 C.ar    1  UNL1        0.1480
      3 O         140.3240  139.6557  166.7762 O.2     1  UNL1       -0.4534
      4 C         139.6098  139.3798  165.4864 C.ar    1  UNL1        0.1453
      5 C         139.0887  138.1111  164.8790 C.ar    1  UNL1        0.0406
      6 C         138.4022  138.1446  163.5459 C.ar    1  UNL1        0.0395
      7 C         138.2366  139.4468  162.8200 C.ar    1  UNL1        0.1311
      8 O         137.5499  139.4802  161.4868 O.3     1  UNL1       -0.5058
      9 C         138.7576  140.7155  163.4273 C.ar    1  UNL1        0.0307
     10 C         139.4442  140.6820  164.7605 C.ar    1  UNL1        0.0405
     11 H         137.2245  138.6877  161.1074 H       1  UNL1        0.2922
     12 C         141.2972  141.8415  167.9679 C.ar    1  UNL1        0.0349
     13 C         140.5291  142.7752  168.8557 C.ar    1  UNL1        0.0061
     14 C         141.2263  143.4884  169.9761 C.ar    1  UNL1        0.0367
     15 C         142.6916  143.2678  170.2087 C.ar    1  UNL1        0.1337
     16 O         143.3889  143.9810  171.3291 O.3     1  UNL1       -0.5055
     17 C         143.4597  142.3341  169.3209 C.ar    1  UNL1        0.0367
     18 C         142.7625  141.6210  168.2006 C.ar    1  UNL1        0.0061
     19 H         142.9091  144.5643  171.8836 H       1  UNL1        0.2922
     20 C         138.9978  144.1344  165.6706 C.3     1  UNL1        0.0774
     21 C         140.1141  143.2215  165.2576 C.2     1  UNL1        0.1765
     22 O         141.2883  143.7674  164.5006 O.2     1  UNL1       -0.2912
     23 C         138.5920  142.0177  162.7015 C.3     1  UNL1        0.1023
     24 N         139.6417  142.4749  161.7325 N.3     1  UNL1       -0.2687
     25 C         140.7089  141.6176  161.1191 C.3     1  UNL1        0.0726
     26 C         141.5353  142.4826  160.2142 C.3     1  UNL1        0.0235
     27 C         140.9789  143.8746  160.2682 C.3     1  UNL1        0.0707
     28 C         140.5935  145.3208  160.1701 C.3     1  UNL1        0.1458
     29 O         141.7174  145.5548  159.2045 O.3     1  UNL1       -0.3535
     30 C         142.1027  144.1084  159.3028 C.3     1  UNL1        0.1458
     31 C         139.8086  143.8698  161.2066 C.3     1  UNL1        0.0772
@<TRIPOS>BOND
     1    20    21    1
     2    21    22    2
     3    21     1    1
     4     1     2   ar
     5     2    12    1
     6    12    13   ar
     7    13    14   ar
     8    14    15   ar
     9    15    16    1
    10    15    17   ar
    11    17    18   ar
    12     2     3   ar
    13     3     4   ar
    14     4     5   ar
    15     5     6   ar
    16     6     7   ar
    17     7     8    1
    18     7     9   ar
    19     9    23    1
    20    23    24    1
    21    24    25    1
    22    25    26    1
    23    26    27    1
    24    27    28    1
    25    28    29    1
    26    29    30    1
    27    27    31    1
    28     9    10   ar
    29    10     1   ar
    30    18    12   ar
    31    10     4   ar
    32    31    24    1
    33    30    27    1
    34    16    19    1
    35     8    11    1
@<TRIPOS>MOLECULE
*****
 31 35 0 0 0
SMALL
GASTEIGER

@<TRIPOS>ATOM
      1 C         142.4379  142.8393  165.2564 C.ar    1  UNL1        0.0720
      2 C         141.6434  142.5654  166.4989 C.ar    1  UNL1        0.1480
      3 O         140.2957  143.2038  166.3374 O.2     1  UNL1       -0.4534
      4 C         140.2572  143.8722  164.9951 C.ar    1  UNL1        0.1453
      5 C         139.1877  144.6569  164.2949 C.ar    1  UNL1        0.0406
      6 C         139.4421  145.2163  162.9266 C.ar    1  UNL1        0.0395
      7 C         140.7661  144.9911  162.2585 C.ar    1  UNL1        0.1311
      8 O         141.0204  145.5505  160.8902 O.3     1  UNL1       -0.5058
      9 C         141.8356  144.2064  162.9587 C.ar    1  UNL1        0.0307
     10 C         141.5812  143.6470  164.3270 C.ar    1  UNL1        0.0405
     11 H         140.3523  146.0407  160.4528 H       1  UNL1        0.2922
     12 C         142.1141  141.7893  167.6931 C.ar    1  UNL1        0.0349
     13 C         141.6981  140.3590  167.8697 C.ar    1  UNL1        0.0061
     14 C         142.1687  139.5830  169.0639 C.ar    1  UNL1        0.0367
     15 C         143.0553  140.2372  170.0817 C.ar    1  UNL1        0.1337
     16 O         143.5259  139.4612  171.2759 O.3     1  UNL1       -0.5055
     17 C         143.4713  141.6675  169.9051 C.ar    1  UNL1        0.0367
     18 C         143.0007  142.4436  168.7109 C.ar    1  UNL1        0.0061
     19 H         143.2661  138.5677  171.3862 H       1  UNL1        0.2922
     20 C         144.1144  140.9509  164.6450 C.3     1  UNL1        0.0774
     21 C         143.8425  142.3853  164.9900 C.2     1  UNL1        0.1765
     22 O         144.9752  143.3654  165.0685 O.2     1  UNL1       -0.2912
     23 C         143.1596  143.9811  162.2906 C.3     1  UNL1        0.1023
     24 N         143.2734  142.9973  161.1641 N.3     1  UNL1       -0.2687
     25 C         143.1416  143.3107  159.7030 C.3     1  UNL1        0.0726
     26 C         143.3258  142.0345  158.9367 C.3     1  UNL1        0.0235
     27 C         143.5714  140.9322  159.9240 C.3     1  UNL1        0.0707
     28 C         143.8318  139.6898  160.7230 C.3     1  UNL1        0.1458
     29 O         143.9059  138.8905  159.4559 O.3     1  UNL1       -0.3535
     30 C         143.6455  140.1330  158.6569 C.3     1  UNL1        0.1458
     31 C         143.5391  141.5273  161.3006 C.3     1  UNL1        0.0772
@<TRIPOS>BOND
     1    20    21    1
     2    21    22    2
     3    21     1    1
     4     1     2   ar
     5     2    12    1
     6    12    13   ar
     7    13    14   ar
     8    14    15   ar
     9    15    16    1
    10    15    17   ar
    11    17    18   ar
    12     2     3   ar
    13     3     4   ar
    14     4     5   ar
    15     5     6   ar
    16     6     7   ar
    17     7     8    1
    18     7     9   ar
    19     9    23    1
    20    23    24    1
    21    24    25    1
    22    25    26    1
    23    26    27    1
    24    27    28    1
    25    28    29    1
    26    29    30    1
    27    27    31    1
    28     9    10   ar
    29    10     1   ar
    30    18    12   ar
    31    10     4   ar
    32    31    24    1
    33    30    27    1
    34    16    19    1
    35     8    11    1
@<TRIPOS>MOLECULE
*****
 31 35 0 0 0
SMALL
GASTEIGER

@<TRIPOS>ATOM
      1 C         140.3775  141.2973  165.5511 C.ar    1  UNL1        0.0720
      2 C         140.6266  141.9704  166.8683 C.ar    1  UNL1        0.1480
      3 O         139.9439  143.3058  166.8428 O.2     1  UNL1       -0.4534
      4 C         139.2730  143.4581  165.5099 C.ar    1  UNL1        0.1453
      5 C         138.4526  144.5666  164.9200 C.ar    1  UNL1        0.0406
      6 C         137.9003  144.4339  163.5317 C.ar    1  UNL1        0.0395
      7 C         138.1683  143.1926  162.7334 C.ar    1  UNL1        0.1311
      8 O         137.6159  143.0599  161.3451 O.3     1  UNL1       -0.5058
      9 C         138.9886  142.0840  163.3233 C.ar    1  UNL1        0.0307
     10 C         139.5410  142.2167  164.7116 C.ar    1  UNL1        0.0405
     11 H         137.1034  143.7524  160.9766 H       1  UNL1        0.2922
     12 C         141.4191  141.4069  168.0104 C.ar    1  UNL1        0.0349
     13 C         142.6269  142.1376  168.5178 C.ar    1  UNL1        0.0061
     14 C         143.4194  141.5742  169.6599 C.ar    1  UNL1        0.0367
     15 C         143.0042  140.2801  170.2946 C.ar    1  UNL1        0.1337
     16 O         143.7967  139.7167  171.4368 O.3     1  UNL1       -0.5055
     17 C         141.7964  139.5495  169.7873 C.ar    1  UNL1        0.0367
     18 C         141.0039  140.1129  168.6452 C.ar    1  UNL1        0.0061
     19 H         144.5512  140.1731  171.7537 H       1  UNL1        0.2922
     20 C         140.0215  138.7304  165.3648 C.3     1  UNL1        0.0774
     21 C         140.8773  139.9427  165.1448 C.2     1  UNL1        0.1765
     22 O         142.2327  139.8001  164.5184 O.2     1  UNL1       -0.2912
     23 C         139.2566  140.8427  162.5250 C.3     1  UNL1        0.1023
     24 N         140.5238  140.7201  161.7318 N.3     1  UNL1       -0.2687
     25 C         141.5675  141.7849  161.5672 C.3     1  UNL1        0.0726
     26 C         142.6585  141.2341  160.6976 C.3     1  UNL1        0.0235
     27 C         142.2893  139.8288  160.3248 C.3     1  UNL1        0.0707
     28 C         142.1228  138.4218  159.8326 C.3     1  UNL1        0.1458
     29 O         143.4322  138.5205  159.1075 O.3     1  UNL1       -0.3535
     30 C         143.5986  139.9276  159.5998 C.3     1  UNL1        0.1458
     31 C         140.9699  139.5112  160.9640 C.3     1  UNL1        0.0772
@<TRIPOS>BOND
     1    20    21    1
     2    21    22    2
     3    21     1    1
     4     1     2   ar
     5     2    12    1
     6    12    13   ar
     7    13    14   ar
     8    14    15   ar
     9    15    16    1
    10    15    17   ar
    11    17    18   ar
    12     2     3   ar
    13     3     4   ar
    14     4     5   ar
    15     5     6   ar
    16     6     7   ar
    17     7     8    1
    18     7     9   ar
    19     9    23    1
    20    23    24    1
    21    24    25    1
    22    25    26    1
    23    26    27    1
    24    27    28    1
    25    28    29    1
    26    29    30    1
    27    27    31    1
    28     9    10   ar
    29    10     1   ar
    30    18    12   ar
    31    10     4   ar
    32    31    24    1
    33    30    27    1
    34    16    19    1
    35     8    11    1
@<TRIPOS>MOLECULE
*****
 31 35 0 0 0
SMALL
GASTEIGER

@<TRIPOS>ATOM
      1 C         141.5302  142.9670  165.4349 C.ar    1  UNL1        0.0720
      2 C         140.4335  143.0192  166.4568 C.ar    1  UNL1        0.1480
      3 O         139.3178  143.8512  165.8973 O.2     1  UNL1       -0.4534
      4 C         139.7250  144.3132  164.5295 C.ar    1  UNL1        0.1453
      5 C         139.0274  145.1608  163.5074 C.ar    1  UNL1        0.0406
      6 C         139.6971  145.4620  162.1995 C.ar    1  UNL1        0.0395
      7 C         141.0645  144.9155  161.9137 C.ar    1  UNL1        0.1311
      8 O         141.7342  145.2168  160.6057 O.3     1  UNL1       -0.5058
      9 C         141.7621  144.0679  162.9358 C.ar    1  UNL1        0.0307
     10 C         141.0924  143.7667  164.2437 C.ar    1  UNL1        0.0405
     11 H         141.2984  145.7463  159.9672 H       1  UNL1        0.2922
     12 C         140.4496  142.3559  167.8021 C.ar    1  UNL1        0.0349
     13 C         140.2695  140.8706  167.9082 C.ar    1  UNL1        0.0061
     14 C         140.2856  140.2073  169.2534 C.ar    1  UNL1        0.0367
     15 C         140.4818  141.0293  170.4927 C.ar    1  UNL1        0.1337
     16 O         140.4979  140.3660  171.8379 O.3     1  UNL1       -0.5055
     17 C         140.6619  142.5147  170.3866 C.ar    1  UNL1        0.0367
     18 C         140.6458  143.1780  169.0413 C.ar    1  UNL1        0.0061
     19 H         140.3854  139.4382  171.9042 H       1  UNL1        0.2922
     20 C         142.9258  140.7845  165.2371 C.3     1  UNL1        0.0774
     21 C         142.8356  142.2423  165.5787 C.2     1  UNL1        0.1765
     22 O         144.0509  142.9753  166.0642 O.2     1  UNL1       -0.2912
     23 C         143.1295  143.5214  162.6500 C.3     1  UNL1        0.1023
     24 N         143.3277  142.5455  161.5284 N.3     1  UNL1       -0.2687
     25 C         142.8085  141.1389  161.4813 C.3     1  UNL1        0.0726
     26 C         143.2399  140.5288  160.1807 C.3     1  UNL1        0.0235
     27 C         144.0258  141.5582  159.4238 C.3     1  UNL1        0.0707
     28 C         144.8329  142.4223  158.5009 C.3     1  UNL1        0.1458
     29 O         144.9058  141.2972  157.5114 O.3     1  UNL1       -0.3535
     30 C         144.0986  140.4332  158.4344 C.3     1  UNL1        0.1458
     31 C         144.0800  142.8046  160.2568 C.3     1  UNL1        0.0772
@<TRIPOS>BOND
     1    20    21    1
     2    21    22    2
     3    21     1    1
     4     1     2   ar
     5     2    12    1
     6    12    13   ar
     7    13    14   ar
     8    14    15   ar
     9    15    16    1
    10    15    17   ar
    11    17    18   ar
    12     2     3   ar
    13     3     4   ar
    14     4     5   ar
    15     5     6   ar
    16     6     7   ar
    17     7     8    1
    18     7     9   ar
    19     9    23    1
    20    23    24    1
    21    24    25    1
    22    25    26    1
    23    26    27    1
    24    27    28    1
    25    28    29    1
    26    29    30    1
    27    27    31    1
    28     9    10   ar
    29    10     1   ar
    30    18    12   ar
    31    10     4   ar
    32    31    24    1
    33    30    27    1
    34    16    19    1
    35     8    11    1
@<TRIPOS>MOLECULE
*****
 31 35 0 0 0
SMALL
GASTEIGER

@<TRIPOS>ATOM
      1 C         142.4218  140.7988  165.2559 C.ar    1  UNL1        0.0720
      2 C         141.9764  139.6797  166.1499 C.ar    1  UNL1        0.1480
      3 O         141.9775  138.4145  165.3443 O.2     1  UNL1       -0.4534
      4 C         142.4236  138.7515  163.9523 C.ar    1  UNL1        0.1453
      5 C         142.6152  137.9070  162.7276 C.ar    1  UNL1        0.0406
      6 C         143.0814  138.5361  161.4483 C.ar    1  UNL1        0.0395
      7 C         143.3560  140.0098  161.3936 C.ar    1  UNL1        0.1311
      8 O         143.8223  140.6389  160.1142 O.3     1  UNL1       -0.5058
      9 C         143.1644  140.8543  162.6184 C.ar    1  UNL1        0.0307
     10 C         142.6982  140.2252  163.8977 C.ar    1  UNL1        0.0405
     11 H         143.9420  140.1113  159.3491 H       1  UNL1        0.2922
     12 C         141.5965  139.8041  167.5957 C.ar    1  UNL1        0.0349
     13 C         140.2017  140.2069  167.9727 C.ar    1  UNL1        0.0061
     14 C         139.8219  140.3312  169.4185 C.ar    1  UNL1        0.0367
     15 C         140.8369  140.0529  170.4872 C.ar    1  UNL1        0.1337
     16 O         140.4571  140.1772  171.9330 O.3     1  UNL1       -0.5055
     17 C         142.2317  139.6501  170.1102 C.ar    1  UNL1        0.0367
     18 C         142.6115  139.5257  168.6644 C.ar    1  UNL1        0.0061
     19 H         139.5858  140.4288  172.1685 H       1  UNL1        0.2922
     20 C         143.9263  142.8109  165.9181 C.3     1  UNL1        0.0774
     21 C         142.5656  142.2388  165.6507 C.2     1  UNL1        0.1765
     22 O         141.3489  143.1067  165.7781 O.2     1  UNL1       -0.2912
     23 C         143.4390  142.3279  162.5637 C.3     1  UNL1        0.1023
     24 N         142.3003  143.3041  162.5797 N.3     1  UNL1       -0.2687
     25 C         142.4035  144.7748  162.8568 C.3     1  UNL1        0.0726
     26 C         141.0254  145.3607  162.7697 C.3     1  UNL1        0.0235
     27 C         140.0704  144.2522  162.4388 C.3     1  UNL1        0.0707
     28 C         138.9492  143.3102  162.1144 C.3     1  UNL1        0.1458
     29 O         137.9738  144.4478  162.1820 O.3     1  UNL1       -0.3535
     30 C         139.0952  145.3898  162.5063 C.3     1  UNL1        0.1458
     31 C         140.8584  142.9812  162.3213 C.3     1  UNL1        0.0772
@<TRIPOS>BOND
     1    20    21    1
     2    21    22    2
     3    21     1    1
     4     1     2   ar
     5     2    12    1
     6    12    13   ar
     7    13    14   ar
     8    14    15   ar
     9    15    16    1
    10    15    17   ar
    11    17    18   ar
    12     2     3   ar
    13     3     4   ar
    14     4     5   ar
    15     5     6   ar
    16     6     7   ar
    17     7     8    1
    18     7     9   ar
    19     9    23    1
    20    23    24    1
    21    24    25    1
    22    25    26    1
    23    26    27    1
    24    27    28    1
    25    28    29    1
    26    29    30    1
    27    27    31    1
    28     9    10   ar
    29    10     1   ar
    30    18    12   ar
    31    10     4   ar
    32    31    24    1
    33    30    27    1
    34    16    19    1
    35     8    11    1
@<TRIPOS>MOLECULE
*****
 31 35 0 0 0
SMALL
GASTEIGER

@<TRIPOS>ATOM
      1 C         141.3911  142.6159  165.5404 C.ar    1  UNL1        0.0720
      2 C         142.3060  142.2017  166.6545 C.ar    1  UNL1        0.1480
      3 O         143.7171  142.2946  166.1543 O.2     1  UNL1       -0.4534
      4 C         143.6743  142.7661  164.7310 C.ar    1  UNL1        0.1453
      5 C         144.7585  143.0404  163.7315 C.ar    1  UNL1        0.0406
      6 C         144.4052  143.5132  162.3525 C.ar    1  UNL1        0.0395
      7 C         142.9677  143.7118  161.9731 C.ar    1  UNL1        0.1311
      8 O         142.6144  144.1846  160.5940 O.3     1  UNL1       -0.5058
      9 C         141.8834  143.4376  162.9726 C.ar    1  UNL1        0.0307
     10 C         142.2367  142.9647  164.3516 C.ar    1  UNL1        0.0405
     11 H         143.2917  144.3559  159.9696 H       1  UNL1        0.2922
     12 C         141.8840  141.7704  168.0278 C.ar    1  UNL1        0.0349
     13 C         141.6568  142.7953  169.0991 C.ar    1  UNL1        0.0061
     14 C         141.2347  142.3640  170.4724 C.ar    1  UNL1        0.0367
     15 C         141.0399  140.9077  170.7743 C.ar    1  UNL1        0.1337
     16 O         140.6179  140.4764  172.1476 O.3     1  UNL1       -0.5055
     17 C         141.2671  139.8828  169.7030 C.ar    1  UNL1        0.0367
     18 C         141.6891  140.3141  168.3298 C.ar    1  UNL1        0.0061
     19 H         140.4760  141.1167  172.8168 H       1  UNL1        0.2922
     20 C         139.1985  143.9897  165.7753 C.3     1  UNL1        0.0774
     21 C         139.8935  142.6715  165.6039 C.2     1  UNL1        0.1765
     22 O         139.0908  141.4090  165.4960 O.2     1  UNL1       -0.2912
     23 C         140.4458  143.6361  162.5932 C.3     1  UNL1        0.1023
     24 N         139.5773  142.4494  162.2976 N.3     1  UNL1       -0.2687
     25 C         138.0790  142.4493  162.2263 C.3     1  UNL1        0.0726
     26 C         137.6302  141.0543  161.9061 C.3     1  UNL1        0.0235
     27 C         138.8512  140.1922  161.7795 C.3     1  UNL1        0.0707
     28 C         139.9213  139.1551  161.6083 C.3     1  UNL1        0.1458
     29 O         138.8725  138.1178  161.3361 O.3     1  UNL1       -0.3535
     30 C         137.8024  139.1550  161.5074 C.3     1  UNL1        0.1458
     31 C         140.0546  141.0545  162.0215 C.3     1  UNL1        0.0772
@<TRIPOS>BOND
     1    20    21    1
     2    21    22    2
     3    21     1    1
     4     1     2   ar
     5     2    12    1
     6    12    13   ar
     7    13    14   ar
     8    14    15   ar
     9    15    16    1
    10    15    17   ar
    11    17    18   ar
    12     2     3   ar
    13     3     4   ar
    14     4     5   ar
    15     5     6   ar
    16     6     7   ar
    17     7     8    1
    18     7     9   ar
    19     9    23    1
    20    23    24    1
    21    24    25    1
    22    25    26    1
    23    26    27    1
    24    27    28    1
    25    28    29    1
    26    29    30    1
    27    27    31    1
    28     9    10   ar
    29    10     1   ar
    30    18    12   ar
    31    10     4   ar
    32    31    24    1
    33    30    27    1
    34    16    19    1
    35     8    11    1
@<TRIPOS>MOLECULE
*****
 31 35 0 0 0
SMALL
GASTEIGER

@<TRIPOS>ATOM
      1 C         142.8390  140.5731  165.7279 C.ar    1  UNL1        0.0720
      2 C         142.3084  141.3625  166.8878 C.ar    1  UNL1        0.1480
      3 O         142.5676  142.8150  166.6172 O.2     1  UNL1       -0.4534
      4 C         143.2583  142.9232  165.2901 C.ar    1  UNL1        0.1453
      5 C         143.7562  144.1045  164.5112 C.ar    1  UNL1        0.0406
      6 C         144.4218  143.9001  163.1826 C.ar    1  UNL1        0.0395
      7 C         144.5895  142.5146  162.6329 C.ar    1  UNL1        0.1311
      8 O         145.2551  142.3103  161.3043 O.3     1  UNL1       -0.5058
      9 C         144.0916  141.3333  163.4119 C.ar    1  UNL1        0.0307
     10 C         143.4260  141.5377  164.7404 C.ar    1  UNL1        0.0405
     11 H         145.5661  143.0482  160.8177 H       1  UNL1        0.2922
     12 C         141.6367  140.7985  168.1046 C.ar    1  UNL1        0.0349
     13 C         140.1660  141.0067  168.3138 C.ar    1  UNL1        0.0061
     14 C         139.4943  140.4427  169.5306 C.ar    1  UNL1        0.0367
     15 C         140.2932  139.6705  170.5382 C.ar    1  UNL1        0.1337
     16 O         139.6214  139.1064  171.7550 O.3     1  UNL1       -0.5055
     17 C         141.7638  139.4622  170.3290 C.ar    1  UNL1        0.0367
     18 C         142.4356  140.0262  169.1122 C.ar    1  UNL1        0.0061
     19 H         138.7027  139.2365  171.8857 H       1  UNL1        0.2922
     20 C         143.8803  138.2341  166.1693 C.3     1  UNL1        0.0774
     21 C         142.7909  139.0811  165.5811 C.2     1  UNL1        0.1765
     22 O         141.6535  138.4360  164.8463 O.2     1  UNL1       -0.2912
     23 C         144.2593  139.9478  162.8622 C.3     1  UNL1        0.1023
     24 N         143.4824  139.5220  161.6518 N.3     1  UNL1       -0.2687
     25 C         144.0515  139.2414  160.2926 C.3     1  UNL1        0.0726
     26 C         142.9209  138.8480  159.3888 C.3     1  UNL1        0.0235
     27 C         141.6529  138.8854  160.1894 C.3     1  UNL1        0.0707
     28 C         140.2791  138.8557  160.7909 C.3     1  UNL1        0.1458
     29 O         139.7101  138.4293  159.4701 O.3     1  UNL1       -0.3535
     30 C         141.0840  138.4589  158.8687 C.3     1  UNL1        0.1458
     31 C         142.0000  139.3019  161.5881 C.3     1  UNL1        0.0772
@<TRIPOS>BOND
     1    20    21    1
     2    21    22    2
     3    21     1    1
     4     1     2   ar
     5     2    12    1
     6    12    13   ar
     7    13    14   ar
     8    14    15   ar
     9    15    16    1
    10    15    17   ar
    11    17    18   ar
    12     2     3   ar
    13     3     4   ar
    14     4     5   ar
    15     5     6   ar
    16     6     7   ar
    17     7     8    1
    18     7     9   ar
    19     9    23    1
    20    23    24    1
    21    24    25    1
    22    25    26    1
    23    26    27    1
    24    27    28    1
    25    28    29    1
    26    29    30    1
    27    27    31    1
    28     9    10   ar
    29    10     1   ar
    30    18    12   ar
    31    10     4   ar
    32    31    24    1
    33    30    27    1
    34    16    19    1
    35     8    11    1
