@<TRIPOS>MOLECULE
*****
 32 36 0 0 0
SMALL
GASTEIGER

@<TRIPOS>ATOM
      1 C         142.2569  138.0252  159.7899 C.ar    1  UNL1        0.1074
      2 C         141.1389  138.4506  158.8850 C.ar    1  UNL1        0.0588
      3 S         141.4890  138.0326  157.4877 S.2     1  UNL1       -0.0508
      4 C         142.8235  137.3489  157.5290 C.ar    1  UNL1        0.1646
      5 N         143.2981  137.3443  158.9518 N.ar    1  UNL1       -0.2224
      6 C         141.4189  137.7576  163.6598 C.ar    1  UNL1        0.2416
      7 N         141.3534  137.5403  162.1771 N.ar    1  UNL1       -0.2089
      8 C         142.3224  138.2425  161.2727 C.ar    1  UNL1        0.1026
      9 C         143.3568  139.1622  161.8510 C.ar    1  UNL1        0.0224
     10 C         143.4222  139.3795  163.3337 C.ar    1  UNL1        0.0239
     11 C         142.4533  138.6772  164.2382 C.ar    1  UNL1        0.1189
     12 N         142.5187  138.8945  165.7209 N.ar    1  UNL1       -0.2826
     13 C         143.5058  138.2686  166.6610 C.ar    1  UNL1        0.1826
     14 N         143.2057  138.7632  168.0449 N.ar    1  UNL1       -0.2280
     15 C         142.0331  139.6948  167.9601 C.ar    1  UNL1        0.0786
     16 C         141.3968  140.4182  169.1098 C.3     1  UNL1        0.0538
     17 C         141.6086  139.7760  166.5238 C.ar    1  UNL1        0.0963
     18 C         139.1058  137.6616  164.8387 C.3     1  UNL1        0.2543
     19 O         140.4499  137.0553  164.5643 O.3     1  UNL1       -0.4551
     20 N         143.5550  136.7712  156.3537 N.pl3   1  UNL1       -0.2786
     21 H         144.3145  137.2577  155.9590 H       1  UNL1        0.1555
     22 C         143.1293  135.4523  155.7798 C.ar    1  UNL1        0.1276
     23 C         142.4756  135.2407  154.4464 C.ar    1  UNL1        0.0244
     24 C         142.2248  133.7711  154.2811 C.ar    1  UNL1        0.0773
     25 N         142.7235  133.0744  155.5123 N.ar    1  UNL1       -0.1728
     26 N         143.2824  134.1134  156.4387 N.ar    1  UNL1       -0.2354
     27 C         141.5712  133.5595  152.9477 C.3     1  UNL1        0.0477
     28 C         141.4181  134.8983  152.2889 C.3     1  UNL1        0.0112
     29 C         141.9770  135.9374  153.2151 C.3     1  UNL1        0.0308
     30 C         143.8882  133.8584  157.7869 C.3     1  UNL1        0.1668
     31 C         144.8417  132.7161  157.9769 C.3     1  UNL1        0.2195
     32 F         145.5122  132.0932  156.7885 F       1  UNL1       -0.2321
@<TRIPOS>BOND
     1    18    19    1
     2    19     6    1
     3     6     7   ar
     4     7     8   ar
     5     8     1    1
     6     1     2   ar
     7     2     3   ar
     8     3     4   ar
     9     4    20    1
    10    20    22    1
    11    22    23   ar
    12    23    24   ar
    13    24    25   ar
    14    25    26   ar
    15    26    30    1
    16    30    31    1
    17    31    32    1
    18    24    27    1
    19    27    28    1
    20    28    29    1
    21     4     5   ar
    22     8     9   ar
    23     9    10   ar
    24    10    11   ar
    25    11    12    1
    26    12    13   ar
    27    13    14   ar
    28    14    15   ar
    29    15    16    1
    30    15    17   ar
    31    11     6   ar
    32    17    12   ar
    33     5     1   ar
    34    26    22   ar
    35    29    23    1
    36    20    21    1
@<TRIPOS>MOLECULE
*****
 32 36 0 0 0
SMALL
GASTEIGER

@<TRIPOS>ATOM
      1 C         142.0665  138.1651  160.3005 C.ar    1  UNL1        0.1074
      2 C         141.1053  138.7801  159.3270 C.ar    1  UNL1        0.0588
      3 S         141.4388  138.2651  157.9582 S.2     1  UNL1       -0.0508
      4 C         142.6061  137.3319  158.0858 C.ar    1  UNL1        0.1646
      5 N         142.9941  137.2700  159.5334 N.ar    1  UNL1       -0.2224
      6 C         143.0335  139.6870  163.8358 C.ar    1  UNL1        0.2416
      7 N         143.0049  139.4488  162.3552 N.ar    1  UNL1       -0.2089
      8 C         142.0951  138.4033  161.7812 C.ar    1  UNL1        0.1026
      9 C         141.2140  137.5961  162.6879 C.ar    1  UNL1        0.0224
     10 C         141.2426  137.8343  164.1686 C.ar    1  UNL1        0.0239
     11 C         142.1523  138.8798  164.7426 C.ar    1  UNL1        0.1189
     12 N         142.1810  139.1180  166.2233 N.ar    1  UNL1       -0.2826
     13 C         143.2679  138.6902  167.1642 C.ar    1  UNL1        0.1826
     14 N         142.8864  139.1336  168.5454 N.ar    1  UNL1       -0.2280
     15 C         141.5636  139.8355  168.4581 C.ar    1  UNL1        0.0786
     16 C         140.8092  140.4408  169.6047 C.3     1  UNL1        0.0538
     17 C         141.1277  139.8258  167.0229 C.ar    1  UNL1        0.0963
     18 C         145.3171  140.9258  163.8399 C.3     1  UNL1        0.2543
     19 O         143.9432  140.7324  164.4099 O.3     1  UNL1       -0.4551
     20 N         143.2692  136.5905  156.9629 N.pl3   1  UNL1       -0.2786
     21 H         144.0271  136.9975  156.4841 H       1  UNL1        0.1555
     22 C         142.7774  135.2291  156.5694 C.ar    1  UNL1        0.1276
     23 C         143.3839  133.9200  156.9798 C.ar    1  UNL1        0.0244
     24 C         142.5742  132.8196  156.3606 C.ar    1  UNL1        0.0773
     25 N         141.4672  133.4486  155.5675 N.ar    1  UNL1       -0.1728
     26 N         141.5928  134.9378  155.6965 N.ar    1  UNL1       -0.2354
     27 C         143.1807  131.5105  156.7709 C.3     1  UNL1        0.0477
     28 C         144.3652  131.8018  157.6438 C.3     1  UNL1        0.0112
     29 C         144.4909  133.2910  157.7729 C.3     1  UNL1        0.0308
     30 C         140.6920  135.9567  155.0639 C.3     1  UNL1        0.1668
     31 C         141.2345  136.8984  154.0299 C.3     1  UNL1        0.2195
     32 F         142.5146  136.5746  153.3184 F       1  UNL1       -0.2321
@<TRIPOS>BOND
     1    18    19    1
     2    19     6    1
     3     6     7   ar
     4     7     8   ar
     5     8     1    1
     6     1     2   ar
     7     2     3   ar
     8     3     4   ar
     9     4    20    1
    10    20    22    1
    11    22    23   ar
    12    23    24   ar
    13    24    25   ar
    14    25    26   ar
    15    26    30    1
    16    30    31    1
    17    31    32    1
    18    24    27    1
    19    27    28    1
    20    28    29    1
    21     4     5   ar
    22     8     9   ar
    23     9    10   ar
    24    10    11   ar
    25    11    12    1
    26    12    13   ar
    27    13    14   ar
    28    14    15   ar
    29    15    16    1
    30    15    17   ar
    31    11     6   ar
    32    17    12   ar
    33     5     1   ar
    34    26    22   ar
    35    29    23    1
    36    20    21    1
@<TRIPOS>MOLECULE
*****
 32 36 0 0 0
SMALL
GASTEIGER

@<TRIPOS>ATOM
      1 C         142.3926  138.0228  159.6842 C.ar    1  UNL1        0.1074
      2 C         141.2870  138.5040  158.7920 C.ar    1  UNL1        0.0588
      3 S         141.6136  138.0935  157.3867 S.2     1  UNL1       -0.0508
      4 C         142.9210  137.3585  157.4105 C.ar    1  UNL1        0.1646
      5 N         143.4024  137.3149  158.8304 N.ar    1  UNL1       -0.2224
      6 C         143.7759  139.0321  163.2644 C.ar    1  UNL1        0.2416
      7 N         143.6945  138.8393  161.7791 N.ar    1  UNL1       -0.2089
      8 C         142.4740  138.2156  161.1695 C.ar    1  UNL1        0.1026
      9 C         141.3349  137.7848  162.0454 C.ar    1  UNL1        0.0224
     10 C         141.4163  137.9777  163.5307 C.ar    1  UNL1        0.0239
     11 C         142.6368  138.6013  164.1402 C.ar    1  UNL1        0.1189
     12 N         142.7182  138.7941  165.6255 N.ar    1  UNL1       -0.2826
     13 C         143.6176  138.0454  166.5638 C.ar    1  UNL1        0.1826
     14 N         143.3698  138.5581  167.9515 N.ar    1  UNL1       -0.2280
     15 C         142.3173  139.6237  167.8708 C.ar    1  UNL1        0.0786
     16 C         141.7644  140.4061  169.0251 C.3     1  UNL1        0.0538
     17 C         141.9146  139.7696  166.4334 C.ar    1  UNL1        0.0963
     18 C         145.1167  141.1489  163.9509 C.3     1  UNL1        0.2543
     19 O         144.9964  139.6557  163.8739 O.3     1  UNL1       -0.4551
     20 N         143.6236  136.7705  156.2228 N.pl3   1  UNL1       -0.2786
     21 H         144.3923  137.2388  155.8239 H       1  UNL1        0.1555
     22 C         143.1551  135.4690  155.6427 C.ar    1  UNL1        0.1276
     23 C         142.4304  135.2937  154.3412 C.ar    1  UNL1        0.0244
     24 C         142.1563  133.8306  154.1565 C.ar    1  UNL1        0.0773
     25 N         142.7117  133.1015  155.3439 N.ar    1  UNL1       -0.1728
     26 N         143.3290  134.1140  156.2625 N.ar    1  UNL1       -0.2354
     27 C         141.4316  133.6554  152.8549 C.3     1  UNL1        0.0477
     28 C         141.2577  135.0103  152.2352 C.3     1  UNL1        0.0112
     29 C         141.8750  136.0228  153.1538 C.3     1  UNL1        0.0308
     30 C         144.0020  133.8229  157.5710 C.3     1  UNL1        0.1668
     31 C         144.6999  132.5116  157.7801 C.3     1  UNL1        0.2195
     32 F         145.6864  132.0167  156.7644 F       1  UNL1       -0.2321
@<TRIPOS>BOND
     1    18    19    1
     2    19     6    1
     3     6     7   ar
     4     7     8   ar
     5     8     1    1
     6     1     2   ar
     7     2     3   ar
     8     3     4   ar
     9     4    20    1
    10    20    22    1
    11    22    23   ar
    12    23    24   ar
    13    24    25   ar
    14    25    26   ar
    15    26    30    1
    16    30    31    1
    17    31    32    1
    18    24    27    1
    19    27    28    1
    20    28    29    1
    21     4     5   ar
    22     8     9   ar
    23     9    10   ar
    24    10    11   ar
    25    11    12    1
    26    12    13   ar
    27    13    14   ar
    28    14    15   ar
    29    15    16    1
    30    15    17   ar
    31    11     6   ar
    32    17    12   ar
    33     5     1   ar
    34    26    22   ar
    35    29    23    1
    36    20    21    1
@<TRIPOS>MOLECULE
*****
 32 36 0 0 0
SMALL
GASTEIGER

@<TRIPOS>ATOM
      1 C         143.3311  141.2956  162.6891 C.ar    1  UNL1        0.1074
      2 C         144.6823  140.6448  162.7160 C.ar    1  UNL1        0.0588
      3 S         144.8223  139.9211  164.0224 S.2     1  UNL1       -0.0508
      4 C         143.5577  140.1247  164.8029 C.ar    1  UNL1        0.1646
      5 N         142.6361  140.9742  163.9790 N.ar    1  UNL1       -0.2224
      6 C         140.9800  143.7728  160.6678 C.ar    1  UNL1        0.2416
      7 N         141.5382  142.9458  161.7879 N.ar    1  UNL1       -0.2089
      8 C         142.7729  142.1226  161.5691 C.ar    1  UNL1        0.1026
      9 C         143.4495  142.1264  160.2303 C.ar    1  UNL1        0.0224
     10 C         142.8913  142.9534  159.1103 C.ar    1  UNL1        0.0239
     11 C         141.6566  143.7766  159.3290 C.ar    1  UNL1        0.1189
     12 N         141.0984  144.6036  158.2090 N.ar    1  UNL1       -0.2826
     13 C         141.6867  145.8756  157.6742 C.ar    1  UNL1        0.1826
     14 N         140.8058  146.3620  156.5618 N.ar    1  UNL1       -0.2280
     15 C         139.6731  145.3906  156.4091 C.ar    1  UNL1        0.0786
     16 C         138.5557  145.4887  155.4132 C.3     1  UNL1        0.0538
     17 C         139.8539  144.3039  157.4271 C.ar    1  UNL1        0.0963
     18 C         139.8627  146.0069  161.3820 C.3     1  UNL1        0.2543
     19 O         139.7453  144.5960  160.8866 O.3     1  UNL1       -0.4551
     20 N         143.2660  139.5753  166.1679 N.pl3   1  UNL1       -0.2786
     21 H         143.9779  139.1302  166.6819 H       1  UNL1        0.1555
     22 C         141.8894  139.7042  166.7498 C.ar    1  UNL1        0.1276
     23 C         140.6136  139.2499  166.1050 C.ar    1  UNL1        0.0244
     24 C         139.4826  139.5750  167.0352 C.ar    1  UNL1        0.0773
     25 N         140.0596  140.2302  168.2550 N.ar    1  UNL1       -0.1728
     26 N         141.5471  140.3101  168.0786 N.ar    1  UNL1       -0.2354
     27 C         138.2068  139.1207  166.3904 C.3     1  UNL1        0.0477
     28 C         138.5492  138.5149  165.0616 C.3     1  UNL1        0.0112
     29 C         140.0366  138.5947  164.8852 C.3     1  UNL1        0.0308
     30 C         142.5211  140.8934  169.0588 C.3     1  UNL1        0.1668
     31 C         143.1535  142.2259  168.7853 C.3     1  UNL1        0.2195
     32 F         144.4369  142.6006  169.4651 F       1  UNL1       -0.2321
@<TRIPOS>BOND
     1    18    19    1
     2    19     6    1
     3     6     7   ar
     4     7     8   ar
     5     8     1    1
     6     1     2   ar
     7     2     3   ar
     8     3     4   ar
     9     4    20    1
    10    20    22    1
    11    22    23   ar
    12    23    24   ar
    13    24    25   ar
    14    25    26   ar
    15    26    30    1
    16    30    31    1
    17    31    32    1
    18    24    27    1
    19    27    28    1
    20    28    29    1
    21     4     5   ar
    22     8     9   ar
    23     9    10   ar
    24    10    11   ar
    25    11    12    1
    26    12    13   ar
    27    13    14   ar
    28    14    15   ar
    29    15    16    1
    30    15    17   ar
    31    11     6   ar
    32    17    12   ar
    33     5     1   ar
    34    26    22   ar
    35    29    23    1
    36    20    21    1
@<TRIPOS>MOLECULE
*****
 32 36 0 0 0
SMALL
GASTEIGER

@<TRIPOS>ATOM
      1 C         143.2112  141.4731  162.7675 C.ar    1  UNL1        0.1074
      2 C         144.5785  140.8627  162.8545 C.ar    1  UNL1        0.0588
      3 S         144.6889  140.1590  164.1746 S.2     1  UNL1       -0.0508
      4 C         143.3897  140.3345  164.9034 C.ar    1  UNL1        0.1646
      5 N         142.4764  141.1466  164.0339 N.ar    1  UNL1       -0.2224
      6 C         140.9247  143.9332  160.6533 C.ar    1  UNL1        0.2416
      7 N         141.4628  143.1362  161.8045 N.ar    1  UNL1       -0.2089
      8 C         142.6730  142.2701  161.6164 C.ar    1  UNL1        0.1026
      9 C         143.3450  142.2010  160.2771 C.ar    1  UNL1        0.0224
     10 C         142.8069  142.9980  159.1259 C.ar    1  UNL1        0.0239
     11 C         141.5967  143.8641  159.3140 C.ar    1  UNL1        0.1189
     12 N         141.0586  144.6611  158.1628 N.ar    1  UNL1       -0.2826
     13 C         141.6840  145.8900  157.5724 C.ar    1  UNL1        0.1826
     14 N         140.8125  146.3575  156.4447 N.ar    1  UNL1       -0.2280
     15 C         139.6484  145.4176  156.3381 C.ar    1  UNL1        0.0786
     16 C         138.5288  145.5098  155.3441 C.3     1  UNL1        0.0538
     17 C         139.8005  144.3692  157.4000 C.ar    1  UNL1        0.0963
     18 C         139.8228  146.0823  161.6108 C.3     1  UNL1        0.2543
     19 O         139.7145  144.7993  160.8414 O.3     1  UNL1       -0.4551
     20 N         143.0613  139.7928  166.2632 N.pl3   1  UNL1       -0.2786
     21 H         143.5528  139.0159  166.6154 H       1  UNL1        0.1555
     22 C         141.9841  140.4349  167.0862 C.ar    1  UNL1        0.1276
     23 C         142.1932  141.4165  168.2010 C.ar    1  UNL1        0.0244
     24 C         140.8470  141.7964  168.7427 C.ar    1  UNL1        0.0773
     25 N         139.8059  141.0496  167.9627 N.ar    1  UNL1       -0.1728
     26 N         140.5086  140.2082  166.9389 N.ar    1  UNL1       -0.2354
     27 C         141.0561  142.7780  169.8575 C.3     1  UNL1        0.0477
     28 C         142.5315  143.0047  170.0048 C.3     1  UNL1        0.0112
     29 C         143.2343  142.1633  168.9810 C.3     1  UNL1        0.0308
     30 C         139.8514  139.2996  165.9427 C.3     1  UNL1        0.1668
     31 C         138.3665  139.3595  165.7383 C.3     1  UNL1        0.2195
     32 F         137.4408  138.8932  166.8224 F       1  UNL1       -0.2321
@<TRIPOS>BOND
     1    18    19    1
     2    19     6    1
     3     6     7   ar
     4     7     8   ar
     5     8     1    1
     6     1     2   ar
     7     2     3   ar
     8     3     4   ar
     9     4    20    1
    10    20    22    1
    11    22    23   ar
    12    23    24   ar
    13    24    25   ar
    14    25    26   ar
    15    26    30    1
    16    30    31    1
    17    31    32    1
    18    24    27    1
    19    27    28    1
    20    28    29    1
    21     4     5   ar
    22     8     9   ar
    23     9    10   ar
    24    10    11   ar
    25    11    12    1
    26    12    13   ar
    27    13    14   ar
    28    14    15   ar
    29    15    16    1
    30    15    17   ar
    31    11     6   ar
    32    17    12   ar
    33     5     1   ar
    34    26    22   ar
    35    29    23    1
    36    20    21    1
@<TRIPOS>MOLECULE
*****
 32 36 0 0 0
SMALL
GASTEIGER

@<TRIPOS>ATOM
      1 C         141.7292  138.2562  159.2898 C.ar    1  UNL1        0.1074
      2 C         141.3764  139.1385  158.1292 C.ar    1  UNL1        0.0588
      3 S         142.1208  138.6409  156.9258 S.2     1  UNL1       -0.0508
      4 C         142.9336  137.4512  157.3426 C.ar    1  UNL1        0.1646
      5 N         142.6916  137.2134  158.8037 N.ar    1  UNL1       -0.2224
      6 C         139.3113  139.0646  162.3313 C.ar    1  UNL1        0.2416
      7 N         139.8300  138.9281  160.9305 N.ar    1  UNL1       -0.2089
      8 C         141.2105  138.3927  160.6907 C.ar    1  UNL1        0.1026
      9 C         142.0725  137.9940  161.8518 C.ar    1  UNL1        0.0224
     10 C         141.5539  138.1305  163.2526 C.ar    1  UNL1        0.0239
     11 C         140.1733  138.6658  163.4924 C.ar    1  UNL1        0.1189
     12 N         139.6547  138.8024  164.8933 N.ar    1  UNL1       -0.2826
     13 C         138.5374  138.0074  165.5011 C.ar    1  UNL1        0.1826
     14 N         138.3545  138.4716  166.9157 N.ar    1  UNL1       -0.2280
     15 C         139.3587  139.5535  167.1821 C.ar    1  UNL1        0.0786
     16 C         139.5295  140.2999  168.4720 C.3     1  UNL1        0.0538
     17 C         140.1623  139.7579  165.9322 C.ar    1  UNL1        0.0963
     18 C         137.6198  141.0354  162.2671 C.3     1  UNL1        0.2543
     19 O         137.9308  139.5999  162.5711 O.3     1  UNL1       -0.4551
     20 N         143.8310  136.6413  156.4544 N.pl3   1  UNL1       -0.2786
     21 H         144.7492  136.9465  156.2725 H       1  UNL1        0.1555
     22 C         143.3294  135.3666  155.8433 C.ar    1  UNL1        0.1276
     23 C         142.6270  135.2379  154.5241 C.ar    1  UNL1        0.0244
     24 C         142.3055  133.7885  154.3096 C.ar    1  UNL1        0.0773
     25 N         142.8093  133.0215  155.4961 N.ar    1  UNL1       -0.1728
     26 N         143.4420  133.9967  156.4440 N.ar    1  UNL1       -0.2354
     27 C         141.6031  133.6598  152.9905 C.3     1  UNL1        0.0477
     28 C         141.4905  135.0296  152.3898 C.3     1  UNL1        0.0112
     29 C         142.1232  136.0049  153.3376 C.3     1  UNL1        0.0308
     30 C         144.0761  133.6611  157.7613 C.3     1  UNL1        0.1668
     31 C         144.9512  132.4491  157.8853 C.3     1  UNL1        0.2195
     32 F         146.2778  132.5497  158.5780 F       1  UNL1       -0.2321
@<TRIPOS>BOND
     1    18    19    1
     2    19     6    1
     3     6     7   ar
     4     7     8   ar
     5     8     1    1
     6     1     2   ar
     7     2     3   ar
     8     3     4   ar
     9     4    20    1
    10    20    22    1
    11    22    23   ar
    12    23    24   ar
    13    24    25   ar
    14    25    26   ar
    15    26    30    1
    16    30    31    1
    17    31    32    1
    18    24    27    1
    19    27    28    1
    20    28    29    1
    21     4     5   ar
    22     8     9   ar
    23     9    10   ar
    24    10    11   ar
    25    11    12    1
    26    12    13   ar
    27    13    14   ar
    28    14    15   ar
    29    15    16    1
    30    15    17   ar
    31    11     6   ar
    32    17    12   ar
    33     5     1   ar
    34    26    22   ar
    35    29    23    1
    36    20    21    1
@<TRIPOS>MOLECULE
*****
 32 36 0 0 0
SMALL
GASTEIGER

@<TRIPOS>ATOM
      1 C         142.2373  138.1010  158.3004 C.ar    1  UNL1        0.1074
      2 C         142.4465  139.0780  157.1817 C.ar    1  UNL1        0.0588
      3 S         143.1360  138.3583  156.0607 S.2     1  UNL1       -0.0508
      4 C         143.3530  136.9366  156.4867 C.ar    1  UNL1        0.1646
      5 N         142.7976  136.7775  157.8709 N.ar    1  UNL1       -0.2224
      6 C         141.5925  138.2715  162.2126 C.ar    1  UNL1        0.2416
      7 N         142.2470  137.9768  160.8955 N.ar    1  UNL1       -0.2089
      8 C         141.5828  138.3957  159.6175 C.ar    1  UNL1        0.1026
      9 C         140.2640  139.1094  159.6566 C.ar    1  UNL1        0.0224
     10 C         139.6094  139.4042  160.9737 C.ar    1  UNL1        0.0239
     11 C         140.2737  138.9852  162.2517 C.ar    1  UNL1        0.1189
     12 N         139.6192  139.2800  163.5688 N.ar    1  UNL1       -0.2826
     13 C         139.5128  140.6278  164.2184 C.ar    1  UNL1        0.1826
     14 N         138.7840  140.4594  165.5186 N.ar    1  UNL1       -0.2280
     15 C         138.4400  139.0075  165.6725 C.ar    1  UNL1        0.0786
     16 C         137.7082  138.3926  166.8286 C.3     1  UNL1        0.0538
     17 C         138.9561  138.2786  164.4675 C.ar    1  UNL1        0.0963
     18 C         143.1417  138.8146  164.2263 C.3     1  UNL1        0.2543
     19 O         142.2568  137.8526  163.4906 O.3     1  UNL1       -0.4551
     20 N         144.0100  135.8624  155.6715 N.pl3   1  UNL1       -0.2786
     21 H         144.8806  136.0318  155.2442 H       1  UNL1        0.1555
     22 C         143.3406  134.5301  155.5074 C.ar    1  UNL1        0.1276
     23 C         142.4870  134.1091  154.3481 C.ar    1  UNL1        0.0244
     24 C         142.0261  132.7037  154.5980 C.ar    1  UNL1        0.0773
     25 N         142.5948  132.2561  155.9119 N.ar    1  UNL1       -0.1728
     26 N         143.4072  133.3849  156.4740 N.ar    1  UNL1       -0.2354
     27 C         141.1725  132.2827  153.4386 C.3     1  UNL1        0.0477
     28 C         141.1059  133.4279  152.4722 C.3     1  UNL1        0.0112
     29 C         141.9183  134.5567  153.0342 C.3     1  UNL1        0.0308
     30 C         144.1549  133.3709  157.7742 C.3     1  UNL1        0.1668
     31 C         145.2930  132.4145  157.9747 C.3     1  UNL1        0.2195
     32 F         145.1201  130.9624  157.6412 F       1  UNL1       -0.2321
@<TRIPOS>BOND
     1    18    19    1
     2    19     6    1
     3     6     7   ar
     4     7     8   ar
     5     8     1    1
     6     1     2   ar
     7     2     3   ar
     8     3     4   ar
     9     4    20    1
    10    20    22    1
    11    22    23   ar
    12    23    24   ar
    13    24    25   ar
    14    25    26   ar
    15    26    30    1
    16    30    31    1
    17    31    32    1
    18    24    27    1
    19    27    28    1
    20    28    29    1
    21     4     5   ar
    22     8     9   ar
    23     9    10   ar
    24    10    11   ar
    25    11    12    1
    26    12    13   ar
    27    13    14   ar
    28    14    15   ar
    29    15    16    1
    30    15    17   ar
    31    11     6   ar
    32    17    12   ar
    33     5     1   ar
    34    26    22   ar
    35    29    23    1
    36    20    21    1
@<TRIPOS>MOLECULE
*****
 32 36 0 0 0
SMALL
GASTEIGER

@<TRIPOS>ATOM
      1 C         142.4374  137.7457  158.1924 C.ar    1  UNL1        0.1074
      2 C         142.7700  138.6601  157.0509 C.ar    1  UNL1        0.0588
      3 S         143.4256  137.8423  155.9779 S.2     1  UNL1       -0.0508
      4 C         143.4982  136.4225  156.4563 C.ar    1  UNL1        0.1646
      5 N         142.8874  136.3628  157.8249 N.ar    1  UNL1       -0.2224
      6 C         141.7808  138.2693  162.0712 C.ar    1  UNL1        0.2416
      7 N         142.4465  137.8707  160.7875 N.ar    1  UNL1       -0.2089
      8 C         141.7716  138.1443  159.4761 C.ar    1  UNL1        0.1026
      9 C         140.4308  138.8163  159.4485 C.ar    1  UNL1        0.0224
     10 C         139.7650  139.2149  160.7322 C.ar    1  UNL1        0.0239
     11 C         140.4399  138.9414  162.0436 C.ar    1  UNL1        0.1189
     12 N         139.7742  139.3399  163.3272 N.ar    1  UNL1       -0.2826
     13 C         139.6296  140.7391  163.8481 C.ar    1  UNL1        0.1826
     14 N         138.9022  140.6731  165.1582 N.ar    1  UNL1       -0.2280
     15 C         138.5971  139.2332  165.4470 C.ar    1  UNL1        0.0786
     16 C         137.8791  138.7092  166.6554 C.3     1  UNL1        0.0538
     17 C         139.1360  138.4092  164.3155 C.ar    1  UNL1        0.0963
     18 C         143.2937  139.0577  164.0305 C.3     1  UNL1        0.2543
     19 O         142.4557  137.9958  163.3826 O.3     1  UNL1       -0.4551
     20 N         144.0795  135.2655  155.6990 N.pl3   1  UNL1       -0.2786
     21 H         144.8652  135.4002  155.1213 H       1  UNL1        0.1555
     22 C         143.4636  133.9033  155.8219 C.ar    1  UNL1        0.1276
     23 C         143.9816  132.7741  156.6624 C.ar    1  UNL1        0.0244
     24 C         143.0598  131.6040  156.4859 C.ar    1  UNL1        0.0773
     25 N         141.9720  132.0101  155.5362 N.ar    1  UNL1       -0.1728
     26 N         142.2215  133.4312  155.1258 N.ar    1  UNL1       -0.2354
     27 C         143.5778  130.4748  157.3264 C.3     1  UNL1        0.0477
     28 C         144.8198  130.9469  158.0224 C.3     1  UNL1        0.0112
     29 C         145.0694  132.3680  157.6120 C.3     1  UNL1        0.0308
     30 C         141.3774  134.2383  154.1847 C.3     1  UNL1        0.1668
     31 C         141.8971  134.5860  152.8212 C.3     1  UNL1        0.2195
     32 F         142.0012  136.0223  152.4020 F       1  UNL1       -0.2321
@<TRIPOS>BOND
     1    18    19    1
     2    19     6    1
     3     6     7   ar
     4     7     8   ar
     5     8     1    1
     6     1     2   ar
     7     2     3   ar
     8     3     4   ar
     9     4    20    1
    10    20    22    1
    11    22    23   ar
    12    23    24   ar
    13    24    25   ar
    14    25    26   ar
    15    26    30    1
    16    30    31    1
    17    31    32    1
    18    24    27    1
    19    27    28    1
    20    28    29    1
    21     4     5   ar
    22     8     9   ar
    23     9    10   ar
    24    10    11   ar
    25    11    12    1
    26    12    13   ar
    27    13    14   ar
    28    14    15   ar
    29    15    16    1
    30    15    17   ar
    31    11     6   ar
    32    17    12   ar
    33     5     1   ar
    34    26    22   ar
    35    29    23    1
    36    20    21    1
@<TRIPOS>MOLECULE
*****
 32 36 0 0 0
SMALL
GASTEIGER

@<TRIPOS>ATOM
      1 C         142.8436  138.2001  159.4673 C.ar    1  UNL1        0.1074
      2 C         142.2768  139.5700  159.6957 C.ar    1  UNL1        0.0588
      3 S         142.8070  140.0788  161.0034 S.2     1  UNL1       -0.0508
      4 C         143.7015  139.0234  161.5831 C.ar    1  UNL1        0.1646
      5 N         143.7241  137.8624  160.6338 N.ar    1  UNL1       -0.2224
      6 C         143.1244  135.2027  156.8815 C.ar    1  UNL1        0.2416
      7 N         143.3913  136.0806  158.0681 N.ar    1  UNL1       -0.2089
      8 C         142.5768  137.3222  158.2807 C.ar    1  UNL1        0.1026
      9 C         141.4955  137.6858  157.3067 C.ar    1  UNL1        0.0224
     10 C         141.2286  136.8079  156.1201 C.ar    1  UNL1        0.0239
     11 C         142.0431  135.5663  155.9075 C.ar    1  UNL1        0.1189
     12 N         141.7763  134.6884  154.7209 N.ar    1  UNL1       -0.2826
     13 C         141.9567  135.0719  153.2820 C.ar    1  UNL1        0.1826
     14 N         141.5741  133.8933  152.4367 N.ar    1  UNL1       -0.2280
     15 C         141.1572  132.7814  153.3532 C.ar    1  UNL1        0.0786
     16 C         140.6963  131.4175  152.9319 C.3     1  UNL1        0.0538
     17 C         141.2822  133.2728  154.7648 C.ar    1  UNL1        0.0963
     18 C         144.4692  133.2010  157.8482 C.3     1  UNL1        0.2543
     19 O         143.9389  133.9611  156.6688 O.3     1  UNL1       -0.4551
     20 N         144.4432  139.1133  162.8839 N.pl3   1  UNL1       -0.2786
     21 H         145.3491  138.7358  162.9611 H       1  UNL1        0.1555
     22 C         143.8044  139.7784  164.0670 C.ar    1  UNL1        0.1276
     23 C         144.0965  141.1631  164.5641 C.ar    1  UNL1        0.0244
     24 C         143.2341  141.4161  165.7651 C.ar    1  UNL1        0.0773
     25 N         142.4089  140.1876  166.0101 N.ar    1  UNL1       -0.1728
     26 N         142.7614  139.1754  164.9607 N.ar    1  UNL1       -0.2354
     27 C         143.5262  142.8008  166.2622 C.3     1  UNL1        0.0477
     28 C         144.5691  143.4037  165.3685 C.3     1  UNL1        0.0112
     29 C         144.9216  142.3916  164.3190 C.3     1  UNL1        0.0308
     30 C         142.1741  137.8017  164.8282 C.3     1  UNL1        0.1668
     31 C         140.9689  137.5814  163.9626 C.3     1  UNL1        0.2195
     32 F         141.1397  137.2194  162.5171 F       1  UNL1       -0.2321
@<TRIPOS>BOND
     1    18    19    1
     2    19     6    1
     3     6     7   ar
     4     7     8   ar
     5     8     1    1
     6     1     2   ar
     7     2     3   ar
     8     3     4   ar
     9     4    20    1
    10    20    22    1
    11    22    23   ar
    12    23    24   ar
    13    24    25   ar
    14    25    26   ar
    15    26    30    1
    16    30    31    1
    17    31    32    1
    18    24    27    1
    19    27    28    1
    20    28    29    1
    21     4     5   ar
    22     8     9   ar
    23     9    10   ar
    24    10    11   ar
    25    11    12    1
    26    12    13   ar
    27    13    14   ar
    28    14    15   ar
    29    15    16    1
    30    15    17   ar
    31    11     6   ar
    32    17    12   ar
    33     5     1   ar
    34    26    22   ar
    35    29    23    1
    36    20    21    1
