@<TRIPOS>MOLECULE
*****
 31 33 0 0 0
SMALL
GASTEIGER

@<TRIPOS>ATOM
      1 C         138.1575  140.7553  162.0986 C.ar    1  UNL1        0.1616
      2 C         138.2644  140.6028  160.6102 C.ar    1  UNL1        0.0501
      3 C         138.8874  139.3699  160.0254 C.ar    1  UNL1        0.0638
      4 CL        138.9942  139.2174  158.5370 Cl      1  UNL1       -0.0820
      5 C         139.4034  138.2896  160.9290 C.ar    1  UNL1        0.0501
      6 C         139.2966  138.4421  162.4174 C.ar    1  UNL1        0.1616
      7 C         138.6736  139.6749  163.0022 C.ar    1  UNL1        0.1703
      8 N         138.5668  139.8274  164.4906 N.2     1  UNL1       -0.1417
      9 N         139.8079  139.9679  165.3212 N.2     1  UNL1       -0.1447
     10 C         139.7010  140.1204  166.8096 C.ar    1  UNL1        0.1363
     11 C         138.5494  139.5029  167.5460 C.ar    1  UNL1        0.1529
     12 O         137.5045  138.7328  166.7940 O.3     1  UNL1       -0.5039
     13 C         138.4425  139.6554  169.0344 C.ar    1  UNL1        0.0382
     14 C         139.4873  140.4254  169.7863 C.ar    1  UNL1        0.0032
     15 C         140.6390  141.0430  169.0499 C.ar    1  UNL1        0.0017
     16 C         141.6838  141.8130  169.8019 C.ar    1  UNL1        0.0001
     17 C         142.8354  142.4305  169.0654 C.ar    1  UNL1        0.0000
     18 C         142.9423  142.2780  167.5770 C.ar    1  UNL1        0.0001
     19 C         141.8975  141.5080  166.8251 C.ar    1  UNL1        0.0017
     20 C         140.7459  140.8905  167.5615 C.ar    1  UNL1        0.0224
     21 H         137.5713  138.6376  165.8643 H       1  UNL1        0.2923
     22 O         137.5346  141.9881  162.6834 O.3     1  UNL1       -0.4738
     23 C         137.9291  143.3422  162.1728 C.3     1  UNL1        0.2055
     24 C         138.4807  144.3686  163.1175 C.3     1  UNL1        0.0473
     25 C         139.3255  143.9114  165.5314 C.3     1  UNL1        0.0001
     26 C         138.2107  144.2557  164.5886 C.3     1  UNL1        0.0038
     27 O         139.8127  137.3617  163.3210 O.3     1  UNL1       -0.4738
     28 C         141.2901  137.1841  163.5099 C.3     1  UNL1        0.2055
     29 C         142.2260  138.3172  163.2098 C.3     1  UNL1        0.0473
     30 C         143.0753  138.8978  164.3015 C.3     1  UNL1        0.0038
     31 C         143.1107  138.2452  165.6515 C.3     1  UNL1        0.0001
@<TRIPOS>BOND
     1    25    26    1
     2    26    24    1
     3    24    23    1
     4    23    22    1
     5    22     1    1
     6     1     2   ar
     7     2     3   ar
     8     3     4    1
     9     3     5   ar
    10     5     6   ar
    11     6    27    1
    12    27    28    1
    13    28    29    1
    14    29    30    1
    15    30    31    1
    16     6     7   ar
    17     7     8    1
    18     8     9    2
    19     9    10    1
    20    10    11   ar
    21    11    12    1
    22    11    13   ar
    23    13    14   ar
    24    14    15   ar
    25    15    16   ar
    26    16    17   ar
    27    17    18   ar
    28    18    19   ar
    29    19    20   ar
    30     7     1   ar
    31    20    10   ar
    32    20    15   ar
    33    12    21    1
@<TRIPOS>MOLECULE
*****
 31 33 0 0 0
SMALL
GASTEIGER

@<TRIPOS>ATOM
      1 C         140.4231  138.2978  162.7924 C.ar    1  UNL1        0.1616
      2 C         140.9149  138.0951  161.3899 C.ar    1  UNL1        0.0501
      3 C         142.3869  138.1108  161.1016 C.ar    1  UNL1        0.0638
      4 CL        142.8786  137.9081  159.6990 Cl      1  UNL1       -0.0820
      5 C         143.3670  138.3294  162.2157 C.ar    1  UNL1        0.0501
      6 C         142.8753  138.5321  163.6183 C.ar    1  UNL1        0.1616
      7 C         141.4034  138.5163  163.9066 C.ar    1  UNL1        0.1703
      8 N         140.9117  138.7191  165.3092 N.2     1  UNL1       -0.1417
      9 N         140.9214  140.0906  165.9164 N.2     1  UNL1       -0.1447
     10 C         140.4297  140.2934  167.3190 C.ar    1  UNL1        0.1363
     11 C         139.1160  139.7081  167.7451 C.ar    1  UNL1        0.1529
     12 O         138.2940  138.9200  166.7687 O.3     1  UNL1       -0.5039
     13 C         138.6243  139.9109  169.1477 C.ar    1  UNL1        0.0382
     14 C         139.4463  140.6989  170.1240 C.ar    1  UNL1        0.0032
     15 C         140.7601  141.2842  169.6979 C.ar    1  UNL1        0.0017
     16 C         141.5820  142.0722  170.6743 C.ar    1  UNL1        0.0001
     17 C         142.8957  142.6574  170.2481 C.ar    1  UNL1        0.0000
     18 C         143.3874  142.4547  168.8456 C.ar    1  UNL1        0.0001
     19 C         142.5655  141.6667  167.8692 C.ar    1  UNL1        0.0017
     20 C         141.2518  141.0814  168.2954 C.ar    1  UNL1        0.0224
     21 H         138.6011  138.7934  165.8926 H       1  UNL1        0.2923
     22 O         138.9512  138.2820  163.0808 O.3     1  UNL1       -0.4738
     23 C         138.1021  139.4622  162.7118 C.3     1  UNL1        0.2055
     24 C         137.8460  140.5456  163.7172 C.3     1  UNL1        0.0473
     25 C         137.7874  143.0497  163.0277 C.3     1  UNL1        0.0001
     26 C         138.5330  141.8720  163.5818 C.3     1  UNL1        0.0038
     27 O         143.8556  138.7506  164.7325 O.3     1  UNL1       -0.4738
     28 C         145.1485  139.4627  164.4651 C.3     1  UNL1        0.2055
     29 C         145.1379  140.8971  164.0267 C.3     1  UNL1        0.0473
     30 C         144.1110  141.8420  164.5770 C.3     1  UNL1        0.0038
     31 C         144.5322  143.1781  165.1131 C.3     1  UNL1        0.0001
@<TRIPOS>BOND
     1    25    26    1
     2    26    24    1
     3    24    23    1
     4    23    22    1
     5    22     1    1
     6     1     2   ar
     7     2     3   ar
     8     3     4    1
     9     3     5   ar
    10     5     6   ar
    11     6    27    1
    12    27    28    1
    13    28    29    1
    14    29    30    1
    15    30    31    1
    16     6     7   ar
    17     7     8    1
    18     8     9    2
    19     9    10    1
    20    10    11   ar
    21    11    12    1
    22    11    13   ar
    23    13    14   ar
    24    14    15   ar
    25    15    16   ar
    26    16    17   ar
    27    17    18   ar
    28    18    19   ar
    29    19    20   ar
    30     7     1   ar
    31    20    10   ar
    32    20    15   ar
    33    12    21    1
@<TRIPOS>MOLECULE
*****
 31 33 0 0 0
SMALL
GASTEIGER

@<TRIPOS>ATOM
      1 C         139.0845  138.5887  162.1885 C.ar    1  UNL1        0.1616
      2 C         139.1526  138.4980  160.6928 C.ar    1  UNL1        0.0501
      3 C         138.6566  139.6348  159.8491 C.ar    1  UNL1        0.0638
      4 CL        138.7247  139.5441  158.3534 Cl      1  UNL1       -0.0820
      5 C         138.0924  140.8622  160.5012 C.ar    1  UNL1        0.0501
      6 C         138.0243  140.9529  161.9969 C.ar    1  UNL1        0.1616
      7 C         138.5203  139.8162  162.8405 C.ar    1  UNL1        0.1703
      8 N         138.4522  139.9069  164.3362 N.2     1  UNL1       -0.1417
      9 N         139.7110  140.0667  165.1360 N.2     1  UNL1       -0.1447
     10 C         139.6429  140.1574  166.6318 C.ar    1  UNL1        0.1363
     11 C         138.5189  139.4960  167.3728 C.ar    1  UNL1        0.1529
     12 O         137.4630  138.7438  166.6182 O.3     1  UNL1       -0.5039
     13 C         138.4508  139.5867  168.8685 C.ar    1  UNL1        0.0382
     14 C         139.5066  140.3388  169.6232 C.ar    1  UNL1        0.0032
     15 C         140.6307  141.0003  168.8821 C.ar    1  UNL1        0.0017
     16 C         141.6865  141.7524  169.6367 C.ar    1  UNL1        0.0001
     17 C         142.8104  142.4138  168.8957 C.ar    1  UNL1        0.0000
     18 C         142.8785  142.3231  167.4000 C.ar    1  UNL1        0.0001
     19 C         141.8227  141.5710  166.6453 C.ar    1  UNL1        0.0017
     20 C         140.6988  140.9096  167.3864 C.ar    1  UNL1        0.0224
     21 H         137.5056  138.6872  165.6839 H       1  UNL1        0.2923
     22 O         139.5805  137.4520  163.0322 O.3     1  UNL1       -0.4738
     23 C         141.0523  137.2740  163.2603 C.3     1  UNL1        0.2055
     24 C         141.5937  137.2213  164.6583 C.3     1  UNL1        0.0473
     25 C         143.2385  139.1528  164.0983 C.3     1  UNL1        0.0001
     26 C         142.6477  138.1967  165.0916 C.3     1  UNL1        0.0038
     27 O         137.4601  142.1804  162.6489 O.3     1  UNL1       -0.4738
     28 C         137.9712  143.5368  162.2632 C.3     1  UNL1        0.2055
     29 C         138.8451  144.3058  163.2091 C.3     1  UNL1        0.0473
     30 C         138.8810  143.9393  164.6633 C.3     1  UNL1        0.0038
     31 C         138.5156  144.9572  165.7025 C.3     1  UNL1        0.0001
@<TRIPOS>BOND
     1    25    26    1
     2    26    24    1
     3    24    23    1
     4    23    22    1
     5    22     1    1
     6     1     2   ar
     7     2     3   ar
     8     3     4    1
     9     3     5   ar
    10     5     6   ar
    11     6    27    1
    12    27    28    1
    13    28    29    1
    14    29    30    1
    15    30    31    1
    16     6     7   ar
    17     7     8    1
    18     8     9    2
    19     9    10    1
    20    10    11   ar
    21    11    12    1
    22    11    13   ar
    23    13    14   ar
    24    14    15   ar
    25    15    16   ar
    26    16    17   ar
    27    17    18   ar
    28    18    19   ar
    29    19    20   ar
    30     7     1   ar
    31    20    10   ar
    32    20    15   ar
    33    12    21    1
@<TRIPOS>MOLECULE
*****
 31 33 0 0 0
SMALL
GASTEIGER

@<TRIPOS>ATOM
      1 C         142.2124  142.7807  160.9469 C.ar    1  UNL1        0.1616
      2 C         141.8657  143.6778  159.7958 C.ar    1  UNL1        0.0501
      3 C         140.4316  143.8707  159.4007 C.ar    1  UNL1        0.0638
      4 CL        140.0849  144.7678  158.2496 Cl      1  UNL1       -0.0820
      5 C         139.3441  143.1664  160.1567 C.ar    1  UNL1        0.0501
      6 C         139.6908  142.2693  161.3078 C.ar    1  UNL1        0.1616
      7 C         141.1249  142.0764  161.7029 C.ar    1  UNL1        0.1703
      8 N         141.4715  141.1793  162.8540 N.2     1  UNL1       -0.1417
      9 N         141.8322  141.7713  164.1841 N.2     1  UNL1       -0.1447
     10 C         142.1788  140.8742  165.3352 C.ar    1  UNL1        0.1363
     11 C         142.9523  139.6115  165.0955 C.ar    1  UNL1        0.1529
     12 O         143.3791  139.2460  163.7047 O.3     1  UNL1       -0.5039
     13 C         143.2989  138.7144  166.2466 C.ar    1  UNL1        0.0382
     14 C         142.8721  139.0799  167.6374 C.ar    1  UNL1        0.0032
     15 C         142.0986  140.3426  167.8771 C.ar    1  UNL1        0.0017
     16 C         141.6718  140.7081  169.2678 C.ar    1  UNL1        0.0001
     17 C         140.8984  141.9707  169.5075 C.ar    1  UNL1        0.0000
     18 C         140.5517  142.8678  168.3564 C.ar    1  UNL1        0.0001
     19 C         140.9785  142.5023  166.9657 C.ar    1  UNL1        0.0017
     20 C         141.7520  141.2397  166.7260 C.ar    1  UNL1        0.0224
     21 H         143.1626  139.8064  162.9857 H       1  UNL1        0.2923
     22 O         143.6465  142.5878  161.3420 O.3     1  UNL1       -0.4738
     23 C         144.3385  143.6205  162.1814 C.3     1  UNL1        0.2055
     24 C         143.5365  144.6720  162.8893 C.3     1  UNL1        0.0473
     25 C         144.4841  143.8665  165.1703 C.3     1  UNL1        0.0001
     26 C         143.6578  144.8337  164.3756 C.3     1  UNL1        0.0038
     27 O         138.6033  141.5650  162.0637 O.3     1  UNL1       -0.4738
     28 C         137.6369  142.3539  162.8966 C.3     1  UNL1        0.2055
     29 C         138.0736  142.9250  164.2130 C.3     1  UNL1        0.0473
     30 C         138.3084  144.4002  164.3498 C.3     1  UNL1        0.0038
     31 C         138.5548  144.9982  165.7032 C.3     1  UNL1        0.0001
@<TRIPOS>BOND
     1    25    26    1
     2    26    24    1
     3    24    23    1
     4    23    22    1
     5    22     1    1
     6     1     2   ar
     7     2     3   ar
     8     3     4    1
     9     3     5   ar
    10     5     6   ar
    11     6    27    1
    12    27    28    1
    13    28    29    1
    14    29    30    1
    15    30    31    1
    16     6     7   ar
    17     7     8    1
    18     8     9    2
    19     9    10    1
    20    10    11   ar
    21    11    12    1
    22    11    13   ar
    23    13    14   ar
    24    14    15   ar
    25    15    16   ar
    26    16    17   ar
    27    17    18   ar
    28    18    19   ar
    29    19    20   ar
    30     7     1   ar
    31    20    10   ar
    32    20    15   ar
    33    12    21    1
@<TRIPOS>MOLECULE
*****
 31 33 0 0 0
SMALL
GASTEIGER

@<TRIPOS>ATOM
      1 C         144.2381  139.3256  163.2416 C.ar    1  UNL1        0.1616
      2 C         144.1639  139.0519  161.7686 C.ar    1  UNL1        0.0501
      3 C         143.0364  138.2328  161.2138 C.ar    1  UNL1        0.0638
      4 CL        142.9622  137.9592  159.7408 Cl      1  UNL1       -0.0820
      5 C         141.9830  137.6875  162.1319 C.ar    1  UNL1        0.0501
      6 C         142.0572  137.9611  163.6049 C.ar    1  UNL1        0.1616
      7 C         143.1846  138.7802  164.1597 C.ar    1  UNL1        0.1703
      8 N         143.2588  139.0538  165.6327 N.2     1  UNL1       -0.1417
      9 N         142.1181  139.7370  166.3269 N.2     1  UNL1       -0.1447
     10 C         142.1922  140.0107  167.7999 C.ar    1  UNL1        0.1363
     11 C         142.9214  139.0610  168.7034 C.ar    1  UNL1        0.1529
     12 O         143.5764  137.8376  168.1340 O.3     1  UNL1       -0.5039
     13 C         142.9955  139.3347  170.1764 C.ar    1  UNL1        0.0382
     14 C         142.3405  140.5580  170.7458 C.ar    1  UNL1        0.0032
     15 C         141.6113  141.5078  169.8423 C.ar    1  UNL1        0.0017
     16 C         140.9563  142.7311  170.4117 C.ar    1  UNL1        0.0001
     17 C         140.2271  143.6808  169.5082 C.ar    1  UNL1        0.0000
     18 C         140.1530  143.4072  168.0352 C.ar    1  UNL1        0.0001
     19 C         140.8080  142.1838  167.4658 C.ar    1  UNL1        0.0017
     20 C         141.5371  141.2341  168.3693 C.ar    1  UNL1        0.0224
     21 H         143.5301  137.6666  167.2139 H       1  UNL1        0.2923
     22 O         145.3656  140.1446  163.7964 O.3     1  UNL1       -0.4738
     23 C         145.5150  141.5828  163.3973 C.3     1  UNL1        0.2055
     24 C         144.3881  142.5459  163.6268 C.3     1  UNL1        0.0473
     25 C         143.9892  142.9398  166.1636 C.3     1  UNL1        0.0001
     26 C         144.4100  143.4554  164.8194 C.3     1  UNL1        0.0038
     27 O         141.0037  137.4157  164.5230 O.3     1  UNL1       -0.4738
     28 C         139.5583  137.7331  164.2784 C.3     1  UNL1        0.2055
     29 C         138.5790  137.6922  165.4139 C.3     1  UNL1        0.0473
     30 C         138.1700  138.9631  166.0977 C.3     1  UNL1        0.0038
     31 C         138.4587  140.2872  165.4548 C.3     1  UNL1        0.0001
@<TRIPOS>BOND
     1    25    26    1
     2    26    24    1
     3    24    23    1
     4    23    22    1
     5    22     1    1
     6     1     2   ar
     7     2     3   ar
     8     3     4    1
     9     3     5   ar
    10     5     6   ar
    11     6    27    1
    12    27    28    1
    13    28    29    1
    14    29    30    1
    15    30    31    1
    16     6     7   ar
    17     7     8    1
    18     8     9    2
    19     9    10    1
    20    10    11   ar
    21    11    12    1
    22    11    13   ar
    23    13    14   ar
    24    14    15   ar
    25    15    16   ar
    26    16    17   ar
    27    17    18   ar
    28    18    19   ar
    29    19    20   ar
    30     7     1   ar
    31    20    10   ar
    32    20    15   ar
    33    12    21    1
@<TRIPOS>MOLECULE
*****
 31 33 0 0 0
SMALL
GASTEIGER

@<TRIPOS>ATOM
      1 C         138.8121  138.7589  163.5410 C.ar    1  UNL1        0.1616
      2 C         138.6395  138.6649  162.0539 C.ar    1  UNL1        0.0501
      3 C         138.0359  139.8095  161.2951 C.ar    1  UNL1        0.0638
      4 CL        137.8633  139.7155  159.8080 Cl      1  UNL1       -0.0820
      5 C         137.6049  141.0479  162.0234 C.ar    1  UNL1        0.0501
      6 C         137.7774  141.1419  163.5104 C.ar    1  UNL1        0.1616
      7 C         138.3810  139.9974  164.2692 C.ar    1  UNL1        0.1703
      8 N         138.5536  140.0914  165.7563 N.2     1  UNL1       -0.1417
      9 N         139.9117  140.3478  166.3390 N.2     1  UNL1       -0.1447
     10 C         140.0843  140.4417  167.8261 C.ar    1  UNL1        0.1363
     11 C         139.0575  139.8409  168.7397 C.ar    1  UNL1        0.1529
     12 O         137.8581  139.1462  168.1663 O.3     1  UNL1       -0.5039
     13 C         139.2301  139.9349  170.2268 C.ar    1  UNL1        0.0382
     14 C         140.4294  140.6297  170.8003 C.ar    1  UNL1        0.0032
     15 C         141.4563  141.2305  169.8866 C.ar    1  UNL1        0.0017
     16 C         142.6556  141.9252  170.4601 C.ar    1  UNL1        0.0001
     17 C         143.6824  142.5260  169.5464 C.ar    1  UNL1        0.0000
     18 C         143.5098  142.4321  168.0594 C.ar    1  UNL1        0.0001
     19 C         142.3105  141.7373  167.4859 C.ar    1  UNL1        0.0017
     20 C         141.2837  141.1365  168.3995 C.ar    1  UNL1        0.0224
     21 H         137.7503  139.0874  167.2374 H       1  UNL1        0.2923
     22 O         139.4157  137.6144  164.2998 O.3     1  UNL1       -0.4738
     23 C         140.8397  137.2158  164.0483 C.3     1  UNL1        0.2055
     24 C         141.9423  138.2158  164.2334 C.3     1  UNL1        0.0473
     25 C         144.0982  138.7436  165.5837 C.3     1  UNL1        0.0001
     26 C         142.6657  138.3005  165.5447 C.3     1  UNL1        0.0038
     27 O         137.3464  142.3804  164.2387 O.3     1  UNL1       -0.4738
     28 C         138.2281  143.5939  164.2417 C.3     1  UNL1        0.2055
     29 C         138.3938  144.4036  162.9900 C.3     1  UNL1        0.0473
     30 C         139.6759  145.1402  162.7375 C.3     1  UNL1        0.0038
     31 C         139.6948  146.3147  161.8047 C.3     1  UNL1        0.0001
@<TRIPOS>BOND
     1    25    26    1
     2    26    24    1
     3    24    23    1
     4    23    22    1
     5    22     1    1
     6     1     2   ar
     7     2     3   ar
     8     3     4    1
     9     3     5   ar
    10     5     6   ar
    11     6    27    1
    12    27    28    1
    13    28    29    1
    14    29    30    1
    15    30    31    1
    16     6     7   ar
    17     7     8    1
    18     8     9    2
    19     9    10    1
    20    10    11   ar
    21    11    12    1
    22    11    13   ar
    23    13    14   ar
    24    14    15   ar
    25    15    16   ar
    26    16    17   ar
    27    17    18   ar
    28    18    19   ar
    29    19    20   ar
    30     7     1   ar
    31    20    10   ar
    32    20    15   ar
    33    12    21    1
@<TRIPOS>MOLECULE
*****
 31 33 0 0 0
SMALL
GASTEIGER

@<TRIPOS>ATOM
      1 C         142.1344  141.8224  161.1138 C.ar    1  UNL1        0.1616
      2 C         142.6684  142.6771  160.0027 C.ar    1  UNL1        0.0501
      3 C         141.7853  143.7013  159.3536 C.ar    1  UNL1        0.0638
      4 CL        142.3192  144.5560  158.2426 Cl      1  UNL1       -0.0820
      5 C         140.3683  143.8707  159.8155 C.ar    1  UNL1        0.0501
      6 C         139.8343  143.0160  160.9266 C.ar    1  UNL1        0.1616
      7 C         140.7174  141.9919  161.5757 C.ar    1  UNL1        0.1703
      8 N         140.1834  141.1372  162.6867 N.2     1  UNL1       -0.1417
      9 N         140.0463  141.7034  164.0689 N.2     1  UNL1       -0.1447
     10 C         139.5123  140.8487  165.1800 C.ar    1  UNL1        0.1363
     11 C         138.4852  139.7952  164.8885 C.ar    1  UNL1        0.1529
     12 O         137.9919  139.5963  163.4859 O.3     1  UNL1       -0.5039
     13 C         137.9512  138.9405  165.9995 C.ar    1  UNL1        0.0382
     14 C         138.4444  139.1393  167.4020 C.ar    1  UNL1        0.0032
     15 C         139.4716  140.1928  167.6936 C.ar    1  UNL1        0.0017
     16 C         139.9648  140.3916  169.0961 C.ar    1  UNL1        0.0001
     17 C         140.9920  141.4451  169.3877 C.ar    1  UNL1        0.0000
     18 C         141.5260  142.2998  168.2766 C.ar    1  UNL1        0.0001
     19 C         141.0327  142.1010  166.8741 C.ar    1  UNL1        0.0017
     20 C         140.0056  141.0475  166.5826 C.ar    1  UNL1        0.0224
     21 H         138.3254  140.1302  162.7918 H       1  UNL1        0.2923
     22 O         143.0175  140.7983  161.7629 O.3     1  UNL1       -0.4738
     23 C         143.9165  141.1937  162.8966 C.3     1  UNL1        0.2055
     24 C         143.5206  140.8858  164.3103 C.3     1  UNL1        0.0473
     25 C         143.1970  139.1282  166.1959 C.3     1  UNL1        0.0001
     26 C         143.8286  139.5413  164.8996 C.3     1  UNL1        0.0038
     27 O         138.4173  143.1855  161.3885 O.3     1  UNL1       -0.4738
     28 C         138.1105  144.0748  162.5568 C.3     1  UNL1        0.2055
     29 C         139.1374  145.0535  163.0443 C.3     1  UNL1        0.0473
     30 C         139.5558  145.0464  164.4848 C.3     1  UNL1        0.0038
     31 C         138.5367  144.8145  165.5607 C.3     1  UNL1        0.0001
@<TRIPOS>BOND
     1    25    26    1
     2    26    24    1
     3    24    23    1
     4    23    22    1
     5    22     1    1
     6     1     2   ar
     7     2     3   ar
     8     3     4    1
     9     3     5   ar
    10     5     6   ar
    11     6    27    1
    12    27    28    1
    13    28    29    1
    14    29    30    1
    15    30    31    1
    16     6     7   ar
    17     7     8    1
    18     8     9    2
    19     9    10    1
    20    10    11   ar
    21    11    12    1
    22    11    13   ar
    23    13    14   ar
    24    14    15   ar
    25    15    16   ar
    26    16    17   ar
    27    17    18   ar
    28    18    19   ar
    29    19    20   ar
    30     7     1   ar
    31    20    10   ar
    32    20    15   ar
    33    12    21    1
@<TRIPOS>MOLECULE
*****
 31 33 0 0 0
SMALL
GASTEIGER

@<TRIPOS>ATOM
      1 C         141.0092  142.3421  161.2226 C.ar    1  UNL1        0.1616
      2 C         141.7219  143.0486  160.1078 C.ar    1  UNL1        0.0501
      3 C         143.0744  142.5756  159.6635 C.ar    1  UNL1        0.0638
      4 CL        143.7871  143.2822  158.5487 Cl      1  UNL1       -0.0820
      5 C         143.7140  141.3962  160.3341 C.ar    1  UNL1        0.0501
      6 C         143.0013  140.6896  161.4489 C.ar    1  UNL1        0.1616
      7 C         141.6489  141.1625  161.8932 C.ar    1  UNL1        0.1703
      8 N         140.9362  140.4560  163.0080 N.2     1  UNL1       -0.1417
      9 N         140.4888  141.2227  164.2170 N.2     1  UNL1       -0.1447
     10 C         139.7761  140.5161  165.3318 C.ar    1  UNL1        0.1363
     11 C         138.8409  139.3841  165.0256 C.ar    1  UNL1        0.1529
     12 O         138.6184  138.9585  163.6045 O.3     1  UNL1       -0.5039
     13 C         138.1282  138.6775  166.1404 C.ar    1  UNL1        0.0382
     14 C         138.3506  139.1030  167.5614 C.ar    1  UNL1        0.0032
     15 C         139.2858  140.2351  167.8677 C.ar    1  UNL1        0.0017
     16 C         139.5083  140.6606  169.2888 C.ar    1  UNL1        0.0001
     17 C         140.4435  141.7927  169.5950 C.ar    1  UNL1        0.0000
     18 C         141.1562  142.4992  168.4802 C.ar    1  UNL1        0.0001
     19 C         140.9337  142.0737  167.0592 C.ar    1  UNL1        0.0017
     20 C         139.9986  140.9417  166.7529 C.ar    1  UNL1        0.0224
     21 H         139.0636  139.3999  162.9081 H       1  UNL1        0.2923
     22 O         139.6569  142.8150  161.6669 O.3     1  UNL1       -0.4738
     23 C         139.4722  144.2292  162.1315 C.3     1  UNL1        0.2055
     24 C         140.0910  144.6820  163.4208 C.3     1  UNL1        0.0473
     25 C         137.9892  143.9151  164.7412 C.3     1  UNL1        0.0001
     26 C         139.2836  144.6709  164.6848 C.3     1  UNL1        0.0038
     27 O         143.6410  139.5101  162.1194 O.3     1  UNL1       -0.4738
     28 C         144.3515  139.6859  163.4286 C.3     1  UNL1        0.2055
     29 C         144.8190  141.0470  163.8513 C.3     1  UNL1        0.0473
     30 C         144.0235  141.8374  164.8476 C.3     1  UNL1        0.0038
     31 C         143.5258  143.2072  164.4926 C.3     1  UNL1        0.0001
@<TRIPOS>BOND
     1    25    26    1
     2    26    24    1
     3    24    23    1
     4    23    22    1
     5    22     1    1
     6     1     2   ar
     7     2     3   ar
     8     3     4    1
     9     3     5   ar
    10     5     6   ar
    11     6    27    1
    12    27    28    1
    13    28    29    1
    14    29    30    1
    15    30    31    1
    16     6     7   ar
    17     7     8    1
    18     8     9    2
    19     9    10    1
    20    10    11   ar
    21    11    12    1
    22    11    13   ar
    23    13    14   ar
    24    14    15   ar
    25    15    16   ar
    26    16    17   ar
    27    17    18   ar
    28    18    19   ar
    29    19    20   ar
    30     7     1   ar
    31    20    10   ar
    32    20    15   ar
    33    12    21    1
@<TRIPOS>MOLECULE
*****
 31 33 0 0 0
SMALL
GASTEIGER

@<TRIPOS>ATOM
      1 C         140.2591  141.8932  169.2743 C.ar    1  UNL1        0.1616
      2 C         139.2878  141.2661  170.2300 C.ar    1  UNL1        0.0501
      3 C         138.4227  140.1263  169.7801 C.ar    1  UNL1        0.0638
      4 CL        137.4514  139.4992  170.7358 Cl      1  UNL1       -0.0820
      5 C         138.5289  139.6135  168.3745 C.ar    1  UNL1        0.0501
      6 C         139.5002  140.2406  167.4188 C.ar    1  UNL1        0.1616
      7 C         140.3653  141.3804  167.8687 C.ar    1  UNL1        0.1703
      8 N         141.3366  142.0074  166.9130 N.2     1  UNL1       -0.1417
      9 N         140.8572  142.5290  165.5908 N.2     1  UNL1       -0.1447
     10 C         141.8286  143.1561  164.6351 C.ar    1  UNL1        0.1363
     11 C         141.5437  144.5106  164.0573 C.ar    1  UNL1        0.1529
     12 O         140.2876  145.2382  164.4351 O.3     1  UNL1       -0.5039
     13 C         142.5151  145.1377  163.1016 C.ar    1  UNL1        0.0382
     14 C         143.7712  144.4102  162.7237 C.ar    1  UNL1        0.0032
     15 C         144.0561  143.0555  163.3016 C.ar    1  UNL1        0.0017
     16 C         145.3122  142.3280  162.9238 C.ar    1  UNL1        0.0001
     17 C         145.5970  140.9734  163.5017 C.ar    1  UNL1        0.0000
     18 C         144.6257  140.3464  164.4574 C.ar    1  UNL1        0.0001
     19 C         143.3696  141.0739  164.8352 C.ar    1  UNL1        0.0017
     20 C         143.0847  142.4285  164.2573 C.ar    1  UNL1        0.0224
     21 H         139.6808  144.8466  165.0321 H       1  UNL1        0.2923
     22 O         141.1242  143.0329  169.7242 O.3     1  UNL1       -0.4738
     23 C         142.4983  142.7645  170.2625 C.3     1  UNL1        0.2055
     24 C         143.2102  141.4943  169.9019 C.3     1  UNL1        0.0473
     25 C         142.4793  139.0013  169.8828 C.3     1  UNL1        0.0001
     26 C         142.9007  140.2256  170.6399 C.3     1  UNL1        0.0038
     27 O         139.6064  139.7278  166.0131 O.3     1  UNL1       -0.4738
     28 C         138.5266  138.8516  165.4508 C.3     1  UNL1        0.2055
     29 C         138.8742  137.7626  164.4797 C.3     1  UNL1        0.0473
     30 C         140.2085  137.7666  163.7943 C.3     1  UNL1        0.0038
     31 C         141.3799  137.0778  164.4294 C.3     1  UNL1        0.0001
@<TRIPOS>BOND
     1    25    26    1
     2    26    24    1
     3    24    23    1
     4    23    22    1
     5    22     1    1
     6     1     2   ar
     7     2     3   ar
     8     3     4    1
     9     3     5   ar
    10     5     6   ar
    11     6    27    1
    12    27    28    1
    13    28    29    1
    14    29    30    1
    15    30    31    1
    16     6     7   ar
    17     7     8    1
    18     8     9    2
    19     9    10    1
    20    10    11   ar
    21    11    12    1
    22    11    13   ar
    23    13    14   ar
    24    14    15   ar
    25    15    16   ar
    26    16    17   ar
    27    17    18   ar
    28    18    19   ar
    29    19    20   ar
    30     7     1   ar
    31    20    10   ar
    32    20    15   ar
    33    12    21    1
