@<TRIPOS>MOLECULE
*****
 31 34 0 0 0
SMALL
GASTEIGER

@<TRIPOS>ATOM
      1 O         138.8786  139.5107  168.3876 O.2     1  UNL1       -0.2699
      2 C         140.1147  140.1457  167.8229 C.2     1  UNL1        0.2494
      3 N         140.5406  139.8389  166.4178 N.am    1  UNL1       -0.2660
      4 C         141.7767  140.4739  165.8531 C.3     1  UNL1        0.1160
      5 C         142.2025  140.1670  164.4479 C.3     1  UNL1        0.1197
      6 N         141.3923  139.2252  163.6074 N.am    1  UNL1       -0.2555
      7 C         140.1562  138.5902  164.1721 C.2     1  UNL1        0.2497
      8 O         139.3460  137.6483  163.3316 O.2     1  UNL1       -0.2727
      9 C         139.7303  138.8970  165.5772 C.3     1  UNL1        0.1799
     10 C         140.9250  141.0876  168.6635 C.ar    1  UNL1        0.0537
     11 C         140.4214  142.4745  168.9333 C.ar    1  UNL1        0.0068
     12 C         141.2316  143.4163  169.7738 C.ar    1  UNL1        0.0298
     13 C         142.5454  142.9712  170.3445 C.ar    1  UNL1        0.1401
     14 F         143.3557  143.9131  171.1850 F       1  UNL1       -0.2042
     15 C         143.0490  141.5843  170.0747 C.ar    1  UNL1        0.0298
     16 C         142.2388  140.6425  169.2342 C.ar    1  UNL1        0.0068
     17 C         141.8181  138.9183  162.2023 C.ar    1  UNL1        0.0541
     18 C         141.0696  139.5110  161.0454 C.ar    1  UNL1        0.0180
     19 C         141.4955  139.2041  159.6402 C.ar    1  UNL1        0.0382
     20 C         142.6699  138.3046  159.3920 C.ar    1  UNL1        0.1386
     21 C         143.4185  137.7119  160.5489 C.ar    1  UNL1        0.0382
     22 C         142.9926  138.0188  161.9540 C.ar    1  UNL1        0.0180
     23 O         143.0958  137.9978  157.9869 O.3     1  UNL1       -0.4754
     24 C         142.4047  136.9142  157.2134 C.3     1  UNL1        0.2068
     25 C         143.2103  135.9280  156.4206 C.3     1  UNL1        0.0646
     26 C         142.7491  134.5055  156.3025 C.3     1  UNL1        0.0759
     27 N         143.6946  133.3825  156.6104 N.3     1  UNL1       -0.2726
     28 C         144.4813  133.2145  157.8764 C.3     1  UNL1        0.0721
     29 C         145.2923  131.9585  157.7550 C.3     1  UNL1        0.0188
     30 C         145.0067  131.3502  156.4139 C.3     1  UNL1        0.0188
     31 C         144.0192  132.2303  155.7066 C.3     1  UNL1        0.0721
@<TRIPOS>BOND
     1     1     2    2
     2     2    10    1
     3    10    11   ar
     4    11    12   ar
     5    12    13   ar
     6    13    14    1
     7    13    15   ar
     8    15    16   ar
     9     2     3   am
    10     3     4    1
    11     4     5    1
    12     5     6    1
    13     6    17    1
    14    17    18   ar
    15    18    19   ar
    16    19    20   ar
    17    20    23    1
    18    23    24    1
    19    24    25    1
    20    25    26    1
    21    26    27    1
    22    27    28    1
    23    28    29    1
    24    29    30    1
    25    30    31    1
    26    20    21   ar
    27    21    22   ar
    28     6     7   am
    29     7     8    2
    30     7     9    1
    31    16    10   ar
    32     9     3    1
    33    22    17   ar
    34    31    27    1
@<TRIPOS>MOLECULE
*****
 31 34 0 0 0
SMALL
GASTEIGER

@<TRIPOS>ATOM
      1 O         139.0268  139.5373  168.3861 O.2     1  UNL1       -0.2699
      2 C         139.8949  140.5840  167.7531 C.2     1  UNL1        0.2494
      3 N         139.8340  140.8137  166.2720 N.am    1  UNL1       -0.2660
      4 C         140.7021  141.8605  165.6390 C.3     1  UNL1        0.1160
      5 C         140.6411  142.0901  164.1579 C.3     1  UNL1        0.1197
      6 N         139.7121  141.2730  163.3099 N.am    1  UNL1       -0.2555
      7 C         138.8440  140.2263  163.9429 C.2     1  UNL1        0.2497
      8 O         137.9149  139.4092  163.0949 O.2     1  UNL1       -0.2727
      9 C         138.9049  139.9966  165.4239 C.3     1  UNL1        0.1799
     10 C         140.8240  141.4011  168.6012 C.ar    1  UNL1        0.0537
     11 C         142.2216  140.9214  168.8589 C.ar    1  UNL1        0.0068
     12 C         143.1506  141.7385  169.7069 C.ar    1  UNL1        0.0298
     13 C         142.6820  143.0353  170.2973 C.ar    1  UNL1        0.1401
     14 F         143.6111  143.8524  171.1454 F       1  UNL1       -0.2042
     15 C         141.2844  143.5151  170.0396 C.ar    1  UNL1        0.0298
     16 C         140.3554  142.6980  169.1916 C.ar    1  UNL1        0.0068
     17 C         139.6511  141.5027  161.8289 C.ar    1  UNL1        0.0541
     18 C         138.5442  142.3282  161.2428 C.ar    1  UNL1        0.0180
     19 C         138.4833  142.5579  159.7617 C.ar    1  UNL1        0.0382
     20 C         139.5292  141.9621  158.8667 C.ar    1  UNL1        0.1386
     21 C         140.6361  141.1366  159.4528 C.ar    1  UNL1        0.0382
     22 C         140.6970  140.9069  160.9338 C.ar    1  UNL1        0.0180
     23 O         139.4683  142.1918  157.3857 O.3     1  UNL1       -0.4754
     24 C         139.5914  143.5822  156.8367 C.3     1  UNL1        0.2068
     25 C         140.6669  144.4965  157.3442 C.3     1  UNL1        0.0646
     26 C         140.3446  145.5297  158.3827 C.3     1  UNL1        0.0759
     27 N         140.7200  145.2952  159.8158 N.3     1  UNL1       -0.2726
     28 C         140.0087  145.8476  161.0153 C.3     1  UNL1        0.0721
     29 C         140.7216  145.3609  162.2420 C.3     1  UNL1        0.0188
     30 C         141.8737  144.5076  161.8006 C.3     1  UNL1        0.0188
     31 C         141.8726  144.4670  160.3012 C.3     1  UNL1        0.0721
@<TRIPOS>BOND
     1     1     2    2
     2     2    10    1
     3    10    11   ar
     4    11    12   ar
     5    12    13   ar
     6    13    14    1
     7    13    15   ar
     8    15    16   ar
     9     2     3   am
    10     3     4    1
    11     4     5    1
    12     5     6    1
    13     6    17    1
    14    17    18   ar
    15    18    19   ar
    16    19    20   ar
    17    20    23    1
    18    23    24    1
    19    24    25    1
    20    25    26    1
    21    26    27    1
    22    27    28    1
    23    28    29    1
    24    29    30    1
    25    30    31    1
    26    20    21   ar
    27    21    22   ar
    28     6     7   am
    29     7     8    2
    30     7     9    1
    31    16    10   ar
    32     9     3    1
    33    22    17   ar
    34    31    27    1
@<TRIPOS>MOLECULE
*****
 31 34 0 0 0
SMALL
GASTEIGER

@<TRIPOS>ATOM
      1 O         144.9537  137.4260  155.3841 O.2     1  UNL1       -0.2699
      2 C         143.6842  137.0199  156.0722 C.2     1  UNL1        0.2494
      3 N         142.9263  138.0172  156.8974 N.am    1  UNL1       -0.2660
      4 C         141.6568  137.6112  157.5856 C.3     1  UNL1        0.1160
      5 C         140.8990  138.6086  158.4108 C.3     1  UNL1        0.1197
      6 N         141.4106  140.0119  158.5479 N.am    1  UNL1       -0.2555
      7 C         142.6801  140.4180  157.8597 C.2     1  UNL1        0.2497
      8 O         143.1917  141.8213  157.9968 O.2     1  UNL1       -0.2727
      9 C         143.4379  139.4207  157.0345 C.3     1  UNL1        0.1799
     10 C         143.1725  135.6165  155.9351 C.ar    1  UNL1        0.0537
     11 C         142.3380  135.2351  154.7486 C.ar    1  UNL1        0.0068
     12 C         141.8264  133.8317  154.6115 C.ar    1  UNL1        0.0298
     13 C         142.1494  132.8098  155.6610 C.ar    1  UNL1        0.1401
     14 F         141.6378  131.4064  155.5239 F       1  UNL1       -0.2042
     15 C         142.9840  133.1913  156.8475 C.ar    1  UNL1        0.0298
     16 C         143.4956  134.5946  156.9846 C.ar    1  UNL1        0.0068
     17 C         140.6527  141.0092  159.3731 C.ar    1  UNL1        0.0541
     18 C         141.1785  141.4269  160.7144 C.ar    1  UNL1        0.0180
     19 C         140.4205  142.4243  161.5396 C.ar    1  UNL1        0.0382
     20 C         139.1369  143.0039  161.0235 C.ar    1  UNL1        0.1386
     21 C         138.6112  142.5861  159.6822 C.ar    1  UNL1        0.0382
     22 C         139.3691  141.5888  158.8570 C.ar    1  UNL1        0.0180
     23 O         138.3791  144.0012  161.8487 O.3     1  UNL1       -0.4754
     24 C         137.8688  143.6182  163.2062 C.3     1  UNL1        0.2068
     25 C         137.2463  142.2703  163.4207 C.3     1  UNL1        0.0646
     26 C         138.0249  141.1845  164.1024 C.3     1  UNL1        0.0759
     27 N         138.3056  139.8984  163.3835 N.3     1  UNL1       -0.2726
     28 C         137.9589  139.5920  161.9566 C.3     1  UNL1        0.0721
     29 C         138.4214  138.1970  161.6564 C.3     1  UNL1        0.0188
     30 C         139.0540  137.6412  162.8978 C.3     1  UNL1        0.0188
     31 C         138.9824  138.6927  163.9651 C.3     1  UNL1        0.0721
@<TRIPOS>BOND
     1     1     2    2
     2     2    10    1
     3    10    11   ar
     4    11    12   ar
     5    12    13   ar
     6    13    14    1
     7    13    15   ar
     8    15    16   ar
     9     2     3   am
    10     3     4    1
    11     4     5    1
    12     5     6    1
    13     6    17    1
    14    17    18   ar
    15    18    19   ar
    16    19    20   ar
    17    20    23    1
    18    23    24    1
    19    24    25    1
    20    25    26    1
    21    26    27    1
    22    27    28    1
    23    28    29    1
    24    29    30    1
    25    30    31    1
    26    20    21   ar
    27    21    22   ar
    28     6     7   am
    29     7     8    2
    30     7     9    1
    31    16    10   ar
    32     9     3    1
    33    22    17   ar
    34    31    27    1
@<TRIPOS>MOLECULE
*****
 31 34 0 0 0
SMALL
GASTEIGER

@<TRIPOS>ATOM
      1 O         138.1224  140.2939  157.1980 O.2     1  UNL1       -0.2699
      2 C         139.1538  139.5260  157.9703 C.2     1  UNL1        0.2494
      3 N         139.1231  139.5281  159.4700 N.am    1  UNL1       -0.2660
      4 C         140.1545  138.7602  160.2423 C.3     1  UNL1        0.1160
      5 C         140.1237  138.7623  161.7420 C.3     1  UNL1        0.1197
      6 N         139.0616  139.5322  162.4693 N.am    1  UNL1       -0.2555
      7 C         138.0302  140.3001  161.6970 C.2     1  UNL1        0.2497
      8 O         136.9680  141.0700  162.4243 O.2     1  UNL1       -0.2727
      9 C         138.0609  140.2980  160.1973 C.3     1  UNL1        0.1799
     10 C         140.2160  138.7561  157.2429 C.ar    1  UNL1        0.0537
     11 C         139.9343  137.3652  156.7572 C.ar    1  UNL1        0.0068
     12 C         140.9964  136.5953  156.0299 C.ar    1  UNL1        0.0298
     13 C         142.3403  137.2163  155.7883 C.ar    1  UNL1        0.1401
     14 F         143.4025  136.4464  155.0609 F       1  UNL1       -0.2042
     15 C         142.6220  138.6072  156.2740 C.ar    1  UNL1        0.0298
     16 C         141.5598  139.3771  157.0013 C.ar    1  UNL1        0.0068
     17 C         139.0309  139.5343  163.9690 C.ar    1  UNL1        0.0541
     18 C         138.5997  138.3047  164.7120 C.ar    1  UNL1        0.0180
     19 C         138.5690  138.3068  166.2118 C.ar    1  UNL1        0.0382
     20 C         138.9695  139.5385  166.9684 C.ar    1  UNL1        0.1386
     21 C         139.4006  140.7681  166.2254 C.ar    1  UNL1        0.0382
     22 C         139.4313  140.7660  164.7257 C.ar    1  UNL1        0.0180
     23 O         138.9387  139.5405  168.4680 O.3     1  UNL1       -0.4754
     24 C         139.6362  140.6275  169.2310 C.3     1  UNL1        0.2068
     25 C         140.9486  140.3494  169.9020 C.3     1  UNL1        0.0646
     26 C         142.0529  139.6781  169.1404 C.3     1  UNL1        0.0759
     27 N         142.5106  140.2434  167.8286 N.3     1  UNL1       -0.2726
     28 C         142.8037  139.4584  166.5845 C.3     1  UNL1        0.0721
     29 C         143.2297  140.4228  165.5175 C.3     1  UNL1        0.0188
     30 C         143.2000  141.8039  166.1022 C.3     1  UNL1        0.0188
     31 C         142.7555  141.6930  167.5305 C.3     1  UNL1        0.0721
@<TRIPOS>BOND
     1     1     2    2
     2     2    10    1
     3    10    11   ar
     4    11    12   ar
     5    12    13   ar
     6    13    14    1
     7    13    15   ar
     8    15    16   ar
     9     2     3   am
    10     3     4    1
    11     4     5    1
    12     5     6    1
    13     6    17    1
    14    17    18   ar
    15    18    19   ar
    16    19    20   ar
    17    20    23    1
    18    23    24    1
    19    24    25    1
    20    25    26    1
    21    26    27    1
    22    27    28    1
    23    28    29    1
    24    29    30    1
    25    30    31    1
    26    20    21   ar
    27    21    22   ar
    28     6     7   am
    29     7     8    2
    30     7     9    1
    31    16    10   ar
    32     9     3    1
    33    22    17   ar
    34    31    27    1
@<TRIPOS>MOLECULE
*****
 31 34 0 0 0
SMALL
GASTEIGER

@<TRIPOS>ATOM
      1 O         143.3400  138.7820  167.7934 O.2     1  UNL1       -0.2699
      2 C         142.2330  139.6567  167.2840 C.2     1  UNL1        0.2494
      3 N         141.8737  139.6402  165.8278 N.am    1  UNL1       -0.2660
      4 C         140.7667  140.5150  165.3185 C.3     1  UNL1        0.1160
      5 C         140.4075  140.4984  163.8622 C.3     1  UNL1        0.1197
      6 N         141.1552  139.6072  162.9153 N.am    1  UNL1       -0.2555
      7 C         142.2622  138.7325  163.4246 C.2     1  UNL1        0.2497
      8 O         143.0099  137.8413  162.4778 O.2     1  UNL1       -0.2727
      9 C         142.6215  138.7490  164.8809 C.3     1  UNL1        0.1799
     10 C         141.4853  140.5480  168.2310 C.ar    1  UNL1        0.0537
     11 C         141.9821  141.9366  168.5044 C.ar    1  UNL1        0.0068
     12 C         141.2343  142.8278  169.4513 C.ar    1  UNL1        0.0298
     13 C         139.9898  142.3303  170.1248 C.ar    1  UNL1        0.1401
     14 F         139.2421  143.2215  171.0718 F       1  UNL1       -0.2042
     15 C         139.4930  140.9416  169.8514 C.ar    1  UNL1        0.0298
     16 C         140.2408  140.0505  168.9045 C.ar    1  UNL1        0.0068
     17 C         140.7959  139.5908  161.4591 C.ar    1  UNL1        0.0541
     18 C         141.5740  140.4250  160.4851 C.ar    1  UNL1        0.0180
     19 C         141.2147  140.4085  159.0288 C.ar    1  UNL1        0.0382
     20 C         140.0773  139.5577  158.5466 C.ar    1  UNL1        0.1386
     21 C         139.2993  138.7235  159.5205 C.ar    1  UNL1        0.0382
     22 C         139.6586  138.7399  160.9768 C.ar    1  UNL1        0.0180
     23 O         139.7181  139.5413  157.0904 O.3     1  UNL1       -0.4754
     24 C         138.6341  140.4410  156.5751 C.3     1  UNL1        0.2068
     25 C         137.8116  141.2496  157.5340 C.3     1  UNL1        0.0646
     26 C         138.1998  142.6642  157.8474 C.3     1  UNL1        0.0759
     27 N         138.7705  143.0050  159.1920 N.3     1  UNL1       -0.2726
     28 C         139.8838  143.9746  159.4572 C.3     1  UNL1        0.0721
     29 C         140.1295  144.0050  160.9366 C.3     1  UNL1        0.0188
     30 C         139.1680  143.0541  161.5858 C.3     1  UNL1        0.0188
     31 C         138.3281  142.4361  160.5075 C.3     1  UNL1        0.0721
@<TRIPOS>BOND
     1     1     2    2
     2     2    10    1
     3    10    11   ar
     4    11    12   ar
     5    12    13   ar
     6    13    14    1
     7    13    15   ar
     8    15    16   ar
     9     2     3   am
    10     3     4    1
    11     4     5    1
    12     5     6    1
    13     6    17    1
    14    17    18   ar
    15    18    19   ar
    16    19    20   ar
    17    20    23    1
    18    23    24    1
    19    24    25    1
    20    25    26    1
    21    26    27    1
    22    27    28    1
    23    28    29    1
    24    29    30    1
    25    30    31    1
    26    20    21   ar
    27    21    22   ar
    28     6     7   am
    29     7     8    2
    30     7     9    1
    31    16    10   ar
    32     9     3    1
    33    22    17   ar
    34    31    27    1
@<TRIPOS>MOLECULE
*****
 31 34 0 0 0
SMALL
GASTEIGER

@<TRIPOS>ATOM
      1 O         138.8243  139.5611  168.3809 O.2     1  UNL1       -0.2699
      2 C         140.0759  140.1620  167.8129 C.2     1  UNL1        0.2494
      3 N         140.4976  139.8316  166.4119 N.am    1  UNL1       -0.2660
      4 C         141.7492  140.4324  165.8440 C.3     1  UNL1        0.1160
      5 C         142.1708  140.1020  164.4428 C.3     1  UNL1        0.1197
      6 N         141.3410  139.1708  163.6097 N.am    1  UNL1       -0.2555
      7 C         140.0894  138.5700  164.1776 C.2     1  UNL1        0.2497
      8 O         139.2595  137.6388  163.3445 O.2     1  UNL1       -0.2727
      9 C         139.6677  138.9004  165.5787 C.3     1  UNL1        0.1799
     10 C         140.9058  141.0932  168.6461 C.ar    1  UNL1        0.0537
     11 C         140.4285  142.4905  168.9101 C.ar    1  UNL1        0.0068
     12 C         141.2583  143.4216  169.7433 C.ar    1  UNL1        0.0298
     13 C         142.5655  142.9555  170.3125 C.ar    1  UNL1        0.1401
     14 F         143.3954  143.8867  171.1457 F       1  UNL1       -0.2042
     15 C         143.0428  141.5582  170.0485 C.ar    1  UNL1        0.0298
     16 C         142.2130  140.6271  169.2153 C.ar    1  UNL1        0.0068
     17 C         141.7627  138.8405  162.2087 C.ar    1  UNL1        0.0541
     18 C         142.8765  137.8643  161.9711 C.ar    1  UNL1        0.0180
     19 C         143.2982  137.5339  160.5700 C.ar    1  UNL1        0.0382
     20 C         142.6061  138.1798  159.4065 C.ar    1  UNL1        0.1386
     21 C         141.4922  139.1559  159.6440 C.ar    1  UNL1        0.0382
     22 C         141.0705  139.4863  161.0451 C.ar    1  UNL1        0.0180
     23 O         143.0278  137.8494  158.0054 O.3     1  UNL1       -0.4754
     24 C         142.7795  138.8288  156.8968 C.3     1  UNL1        0.2068
     25 C         143.5889  140.0891  156.8141 C.3     1  UNL1        0.0646
     26 C         144.5867  140.2684  155.7086 C.3     1  UNL1        0.0759
     27 N         145.7736  141.1638  155.9074 N.3     1  UNL1       -0.2726
     28 C         146.9338  141.3113  154.9683 C.3     1  UNL1        0.0721
     29 C         147.8859  142.3076  155.5607 C.3     1  UNL1        0.0188
     30 C         147.3141  142.7758  156.8660 C.3     1  UNL1        0.0188
     31 C         146.0086  142.0689  157.0803 C.3     1  UNL1        0.0721
@<TRIPOS>BOND
     1     1     2    2
     2     2    10    1
     3    10    11   ar
     4    11    12   ar
     5    12    13   ar
     6    13    14    1
     7    13    15   ar
     8    15    16   ar
     9     2     3   am
    10     3     4    1
    11     4     5    1
    12     5     6    1
    13     6    17    1
    14    17    18   ar
    15    18    19   ar
    16    19    20   ar
    17    20    23    1
    18    23    24    1
    19    24    25    1
    20    25    26    1
    21    26    27    1
    22    27    28    1
    23    28    29    1
    24    29    30    1
    25    30    31    1
    26    20    21   ar
    27    21    22   ar
    28     6     7   am
    29     7     8    2
    30     7     9    1
    31    16    10   ar
    32     9     3    1
    33    22    17   ar
    34    31    27    1
@<TRIPOS>MOLECULE
*****
 31 34 0 0 0
SMALL
GASTEIGER

@<TRIPOS>ATOM
      1 O         144.8622  137.2688  155.5292 O.2     1  UNL1       -0.2699
      2 C         143.4575  136.8766  155.8799 C.2     1  UNL1        0.2494
      3 N         142.6159  137.7824  156.7291 N.am    1  UNL1       -0.2660
      4 C         141.2112  137.3903  157.0799 C.3     1  UNL1        0.1160
      5 C         140.3695  138.2961  157.9291 C.3     1  UNL1        0.1197
      6 N         140.9325  139.5940  158.4275 N.am    1  UNL1       -0.2555
      7 C         142.3372  139.9861  158.0767 C.2     1  UNL1        0.2497
      8 O         142.9002  141.2840  158.5751 O.2     1  UNL1       -0.2727
      9 C         143.1789  139.0804  157.2275 C.3     1  UNL1        0.1799
     10 C         142.8945  135.5787  155.3815 C.ar    1  UNL1        0.0537
     11 C         142.2939  135.4994  154.0093 C.ar    1  UNL1        0.0068
     12 C         141.7310  134.2015  153.5109 C.ar    1  UNL1        0.0298
     13 C         141.7686  132.9828  154.3847 C.ar    1  UNL1        0.1401
     14 F         141.2056  131.6849  153.8863 F       1  UNL1       -0.2042
     15 C         142.3692  133.0621  155.7569 C.ar    1  UNL1        0.0298
     16 C         142.9322  134.3601  156.2553 C.ar    1  UNL1        0.0068
     17 C         140.0908  140.4998  159.2766 C.ar    1  UNL1        0.0541
     18 C         139.3686  141.6565  158.6518 C.ar    1  UNL1        0.0180
     19 C         138.5269  142.5623  159.5010 C.ar    1  UNL1        0.0382
     20 C         138.4074  142.3113  160.9750 C.ar    1  UNL1        0.1386
     21 C         139.1297  141.1546  161.5999 C.ar    1  UNL1        0.0382
     22 C         139.9713  140.2489  160.7507 C.ar    1  UNL1        0.0180
     23 O         137.5657  143.2171  161.8242 O.3     1  UNL1       -0.4754
     24 C         137.7161  143.1998  163.3165 C.3     1  UNL1        0.2068
     25 C         138.2144  144.4190  164.0343 C.3     1  UNL1        0.0646
     26 C         139.6701  144.7774  163.9824 C.3     1  UNL1        0.0759
     27 N         140.4132  144.7095  162.6812 N.3     1  UNL1       -0.2726
     28 C         140.1568  145.5619  161.4739 C.3     1  UNL1        0.0721
     29 C         141.1283  145.1565  160.4054 C.3     1  UNL1        0.0188
     30 C         141.9853  144.0535  160.9523 C.3     1  UNL1        0.0188
     31 C         141.5433  143.7772  162.3588 C.3     1  UNL1        0.0721
@<TRIPOS>BOND
     1     1     2    2
     2     2    10    1
     3    10    11   ar
     4    11    12   ar
     5    12    13   ar
     6    13    14    1
     7    13    15   ar
     8    15    16   ar
     9     2     3   am
    10     3     4    1
    11     4     5    1
    12     5     6    1
    13     6    17    1
    14    17    18   ar
    15    18    19   ar
    16    19    20   ar
    17    20    23    1
    18    23    24    1
    19    24    25    1
    20    25    26    1
    21    26    27    1
    22    27    28    1
    23    28    29    1
    24    29    30    1
    25    30    31    1
    26    20    21   ar
    27    21    22   ar
    28     6     7   am
    29     7     8    2
    30     7     9    1
    31    16    10   ar
    32     9     3    1
    33    22    17   ar
    34    31    27    1
@<TRIPOS>MOLECULE
*****
 31 34 0 0 0
SMALL
GASTEIGER

@<TRIPOS>ATOM
      1 O         143.2168  138.8854  168.0318 O.2     1  UNL1       -0.2699
      2 C         142.4255  140.0460  167.5057 C.2     1  UNL1        0.2494
      3 N         142.4603  140.3759  166.0429 N.am    1  UNL1       -0.2660
      4 C         141.6690  141.5365  165.5168 C.3     1  UNL1        0.1160
      5 C         141.7037  141.8664  164.0538 C.3     1  UNL1        0.1197
      6 N         142.5298  141.0357  163.1171 N.am    1  UNL1       -0.2555
      7 C         143.3211  139.8751  163.6433 C.2     1  UNL1        0.2497
      8 O         144.1472  139.0443  162.7066 O.2     1  UNL1       -0.2727
      9 C         143.2864  139.5452  165.1061 C.3     1  UNL1        0.1799
     10 C         141.5994  140.8768  168.4425 C.ar    1  UNL1        0.0537
     11 C         140.2600  140.3816  168.9014 C.ar    1  UNL1        0.0068
     12 C         139.4339  141.2123  169.8381 C.ar    1  UNL1        0.0298
     13 C         139.9474  142.5382  170.3160 C.ar    1  UNL1        0.1401
     14 F         139.1213  143.3690  171.2528 F       1  UNL1       -0.2042
     15 C         141.2868  143.0334  169.8571 C.ar    1  UNL1        0.0298
     16 C         142.1128  142.2027  168.9204 C.ar    1  UNL1        0.0068
     17 C         142.5646  141.3656  161.6543 C.ar    1  UNL1        0.0541
     18 C         143.3051  142.5794  161.1766 C.ar    1  UNL1        0.0180
     19 C         143.3398  142.9093  159.7137 C.ar    1  UNL1        0.0382
     20 C         142.6341  142.0253  158.7286 C.ar    1  UNL1        0.1386
     21 C         141.8936  140.8115  159.2063 C.ar    1  UNL1        0.0382
     22 C         141.8588  140.4816  160.6691 C.ar    1  UNL1        0.0180
     23 O         142.6688  142.3552  157.2657 O.3     1  UNL1       -0.4754
     24 C         142.0277  143.6157  156.7657 C.3     1  UNL1        0.2068
     25 C         140.5488  143.8159  156.9168 C.3     1  UNL1        0.0646
     26 C         140.0237  144.7987  157.9210 C.3     1  UNL1        0.0759
     27 N         139.9053  144.4059  159.3638 N.3     1  UNL1       -0.2726
     28 C         139.2246  143.1773  159.8901 C.3     1  UNL1        0.0721
     29 C         139.3455  143.1848  161.3851 C.3     1  UNL1        0.0188
     30 C         140.1010  144.4182  161.7829 C.3     1  UNL1        0.0188
     31 C         140.4470  145.1728  160.5336 C.3     1  UNL1        0.0721
@<TRIPOS>BOND
     1     1     2    2
     2     2    10    1
     3    10    11   ar
     4    11    12   ar
     5    12    13   ar
     6    13    14    1
     7    13    15   ar
     8    15    16   ar
     9     2     3   am
    10     3     4    1
    11     4     5    1
    12     5     6    1
    13     6    17    1
    14    17    18   ar
    15    18    19   ar
    16    19    20   ar
    17    20    23    1
    18    23    24    1
    19    24    25    1
    20    25    26    1
    21    26    27    1
    22    27    28    1
    23    28    29    1
    24    29    30    1
    25    30    31    1
    26    20    21   ar
    27    21    22   ar
    28     6     7   am
    29     7     8    2
    30     7     9    1
    31    16    10   ar
    32     9     3    1
    33    22    17   ar
    34    31    27    1
@<TRIPOS>MOLECULE
*****
 31 34 0 0 0
SMALL
GASTEIGER

@<TRIPOS>ATOM
      1 O         143.2574  138.9221  168.0233 O.2     1  UNL1       -0.2699
      2 C         142.1254  139.7463  167.4857 C.2     1  UNL1        0.2494
      3 N         141.7614  139.6639  166.0329 N.am    1  UNL1       -0.2660
      4 C         140.6294  140.4881  165.4954 C.3     1  UNL1        0.1160
      5 C         140.2655  140.4056  164.0425 C.3     1  UNL1        0.1197
      6 N         141.0336  139.4989  163.1272 N.am    1  UNL1       -0.2555
      7 C         142.1657  138.6746  163.6648 C.2     1  UNL1        0.2497
      8 O         142.9339  137.7679  162.7495 O.2     1  UNL1       -0.2727
      9 C         142.5296  138.7571  165.1176 C.3     1  UNL1        0.1799
     10 C         141.3572  140.6531  168.4011 C.ar    1  UNL1        0.0537
     11 C         141.8180  142.0637  168.6195 C.ar    1  UNL1        0.0068
     12 C         141.0498  142.9704  169.5348 C.ar    1  UNL1        0.0298
     13 C         139.8208  142.4664  170.2317 C.ar    1  UNL1        0.1401
     14 F         139.0527  143.3732  171.1470 F       1  UNL1       -0.2042
     15 C         139.3600  141.0558  170.0133 C.ar    1  UNL1        0.0298
     16 C         140.1282  140.1491  169.0980 C.ar    1  UNL1        0.0068
     17 C         140.6697  139.4164  161.6744 C.ar    1  UNL1        0.0541
     18 C         141.3746  140.2841  160.6742 C.ar    1  UNL1        0.0180
     19 C         141.0106  140.2016  159.2213 C.ar    1  UNL1        0.0382
     20 C         139.9418  139.2515  158.7687 C.ar    1  UNL1        0.1386
     21 C         139.2369  138.3838  159.7689 C.ar    1  UNL1        0.0382
     22 C         139.6009  138.4663  161.2217 C.ar    1  UNL1        0.0180
     23 O         139.5779  139.1690  157.3159 O.3     1  UNL1       -0.4754
     24 C         139.6636  137.8566  156.5945 C.3     1  UNL1        0.2068
     25 C         140.8034  137.5893  155.6567 C.3     1  UNL1        0.0646
     26 C         140.9916  136.2190  155.0764 C.3     1  UNL1        0.0759
     27 N         141.8308  135.2073  155.7991 N.3     1  UNL1       -0.2726
     28 C         141.7608  133.7189  155.6267 C.3     1  UNL1        0.0721
     29 C         142.7741  133.0981  156.5420 C.3     1  UNL1        0.0188
     30 C         143.4703  134.2028  157.2802 C.3     1  UNL1        0.0188
     31 C         142.8874  135.5064  156.8210 C.3     1  UNL1        0.0721
@<TRIPOS>BOND
     1     1     2    2
     2     2    10    1
     3    10    11   ar
     4    11    12   ar
     5    12    13   ar
     6    13    14    1
     7    13    15   ar
     8    15    16   ar
     9     2     3   am
    10     3     4    1
    11     4     5    1
    12     5     6    1
    13     6    17    1
    14    17    18   ar
    15    18    19   ar
    16    19    20   ar
    17    20    23    1
    18    23    24    1
    19    24    25    1
    20    25    26    1
    21    26    27    1
    22    27    28    1
    23    28    29    1
    24    29    30    1
    25    30    31    1
    26    20    21   ar
    27    21    22   ar
    28     6     7   am
    29     7     8    2
    30     7     9    1
    31    16    10   ar
    32     9     3    1
    33    22    17   ar
    34    31    27    1
