@<TRIPOS>MOLECULE
*****
 27 30 0 0 0
SMALL
GASTEIGER

@<TRIPOS>ATOM
      1 C         142.8467  141.3395  167.4602 C.ar    1  UNL1        0.0919
      2 C         142.8587  141.7516  168.9025 C.ar    1  UNL1        0.1079
      3 N         142.9218  140.7097  169.9797 N.ar    1  UNL1       -0.2121
      4 C         142.9729  139.2557  169.6146 C.ar    1  UNL1        0.2172
      5 N         142.9609  138.8436  168.1723 N.ar    1  UNL1       -0.2121
      6 C         142.8978  139.8855  167.0951 C.ar    1  UNL1        0.1079
      7 O         144.0287  143.1075  165.9680 O.2     1  UNL1       -0.2698
      8 C         142.7835  142.3814  166.3830 C.2     1  UNL1        0.2521
      9 N         141.4752  142.6973  165.7209 N.am    1  UNL1       -0.2760
     10 C         140.1540  142.0571  166.0286 C.3     1  UNL1        0.0938
     11 C         139.1206  142.6730  165.1327 C.3     1  UNL1        0.0233
     12 C         139.8031  143.6938  164.2711 C.3     1  UNL1        0.0248
     13 C         140.6186  144.6760  163.4835 C.3     1  UNL1        0.0339
     14 C         139.9613  145.5315  162.4414 C.3     1  UNL1        0.1422
     15 O         138.4884  145.4049  162.1869 O.3     1  UNL1       -0.3538
     16 C         137.6729  144.4227  162.9745 C.3     1  UNL1        0.1422
     17 C         138.3303  143.5672  164.0166 C.3     1  UNL1        0.0339
     18 C         141.2583  143.7088  164.6346 C.3     1  UNL1        0.0938
     19 N         143.0361  138.2137  170.6919 N.pl3   1  UNL1       -0.2978
     20 H         142.6152  138.3829  171.5656 H       1  UNL1        0.1500
     21 C         143.7405  136.9140  170.4378 C.3     1  UNL1        0.1376
     22 C         144.6805  136.3570  171.4653 C.ar    1  UNL1        0.0979
     23 C         144.6665  134.8900  171.7778 C.ar    1  UNL1        0.1153
     24 N         145.6066  134.3330  172.8054 N.ar    1  UNL1       -0.2394
     25 C         146.5608  135.2431  173.5205 C.ar    1  UNL1        0.1195
     26 C         146.5748  136.7101  173.2080 C.ar    1  UNL1        0.1192
     27 N         145.6348  137.2670  172.1805 N.ar    1  UNL1       -0.2433
@<TRIPOS>BOND
     1     7     8    2
     2     8     1    1
     3     1     2   ar
     4     2     3   ar
     5     3     4   ar
     6     4    19    1
     7    19    21    1
     8    21    22    1
     9    22    23   ar
    10    23    24   ar
    11    24    25   ar
    12    25    26   ar
    13    26    27   ar
    14     4     5   ar
    15     5     6   ar
    16     8     9   am
    17     9    10    1
    18    10    11    1
    19    11    12    1
    20    12    13    1
    21    13    14    1
    22    14    15    1
    23    15    16    1
    24    16    17    1
    25    12    18    1
    26     6     1   ar
    27    18     9    1
    28    27    22   ar
    29    17    12    1
    30    19    20    1
@<TRIPOS>MOLECULE
*****
 27 30 0 0 0
SMALL
GASTEIGER

@<TRIPOS>ATOM
      1 C         138.6362  138.9251  165.3255 C.ar    1  UNL1        0.0919
      2 C         139.1777  137.6158  164.8329 C.ar    1  UNL1        0.1079
      3 N         139.1674  137.3043  163.3656 N.ar    1  UNL1       -0.2121
      4 C         138.6157  138.3022  162.3910 C.ar    1  UNL1        0.2172
      5 N         138.0743  139.6115  162.8836 N.ar    1  UNL1       -0.2121
      6 C         138.0845  139.9229  164.3509 C.ar    1  UNL1        0.1079
      7 O         137.5917  138.6591  167.6894 O.2     1  UNL1       -0.2698
      8 C         138.6465  139.2365  166.7927 C.2     1  UNL1        0.2521
      9 N         139.7116  140.1253  167.3634 N.am    1  UNL1       -0.2760
     10 C         140.8255  140.7720  166.5946 C.3     1  UNL1        0.0938
     11 C         141.6521  141.5699  167.5591 C.3     1  UNL1        0.0233
     12 C         141.0490  141.4163  168.9240 C.3     1  UNL1        0.0248
     13 C         140.3379  141.1706  170.2216 C.3     1  UNL1        0.0339
     14 C         140.8451  141.7994  171.4855 C.3     1  UNL1        0.1422
     15 O         142.0634  142.6739  171.4517 O.3     1  UNL1       -0.3538
     16 C         142.7745  142.9195  170.1540 C.3     1  UNL1        0.1422
     17 C         142.2673  142.2907  168.8902 C.3     1  UNL1        0.0339
     18 C         139.8497  140.5235  168.8030 C.3     1  UNL1        0.0938
     19 N         138.6054  137.9908  160.9237 N.pl3   1  UNL1       -0.2978
     20 H         137.8388  137.5179  160.5262 H       1  UNL1        0.1500
     21 C         139.7631  138.3997  160.0620 C.3     1  UNL1        0.1376
     22 C         141.0836  138.7346  160.6896 C.ar    1  UNL1        0.0979
     23 C         141.4951  140.1679  160.8515 C.ar    1  UNL1        0.1153
     24 N         142.8157  140.5028  161.4791 N.ar    1  UNL1       -0.2394
     25 C         143.7248  139.4044  161.9448 C.ar    1  UNL1        0.1195
     26 C         143.3134  137.9711  161.7829 C.ar    1  UNL1        0.1192
     27 N         141.9928  137.6362  161.1554 N.ar    1  UNL1       -0.2433
@<TRIPOS>BOND
     1     7     8    2
     2     8     1    1
     3     1     2   ar
     4     2     3   ar
     5     3     4   ar
     6     4    19    1
     7    19    21    1
     8    21    22    1
     9    22    23   ar
    10    23    24   ar
    11    24    25   ar
    12    25    26   ar
    13    26    27   ar
    14     4     5   ar
    15     5     6   ar
    16     8     9   am
    17     9    10    1
    18    10    11    1
    19    11    12    1
    20    12    13    1
    21    13    14    1
    22    14    15    1
    23    15    16    1
    24    16    17    1
    25    12    18    1
    26     6     1   ar
    27    18     9    1
    28    27    22   ar
    29    17    12    1
    30    19    20    1
@<TRIPOS>MOLECULE
*****
 27 30 0 0 0
SMALL
GASTEIGER

@<TRIPOS>ATOM
      1 C         144.4844  143.0240  164.0548 C.ar    1  UNL1        0.0919
      2 C         145.3712  141.9576  163.4834 C.ar    1  UNL1        0.1079
      3 N         145.4537  141.7673  161.9978 N.ar    1  UNL1       -0.2121
      4 C         144.6494  142.6433  161.0836 C.ar    1  UNL1        0.2172
      5 N         143.7626  143.7097  161.6551 N.ar    1  UNL1       -0.2121
      6 C         143.6801  143.9001  163.1407 C.ar    1  UNL1        0.1079
      7 O         145.2570  144.2470  166.2128 O.2     1  UNL1       -0.2698
      8 C         144.4019  143.2143  165.5403 C.2     1  UNL1        0.2521
      9 N         143.4643  142.3719  166.3535 N.am    1  UNL1       -0.2760
     10 C         142.5522  141.3054  165.8234 C.3     1  UNL1        0.0938
     11 C         141.7984  140.7224  166.9818 C.3     1  UNL1        0.0233
     12 C         142.2444  141.4286  168.2278 C.3     1  UNL1        0.0248
     13 C         142.7861  142.2189  169.3819 C.3     1  UNL1        0.0339
     14 C         142.2898  141.9524  170.7720 C.3     1  UNL1        0.1422
     15 O         141.2518  140.8956  171.0081 O.3     1  UNL1       -0.3538
     16 C         140.7101  140.1053  169.8540 C.3     1  UNL1        0.1422
     17 C         141.2065  140.3718  168.4639 C.3     1  UNL1        0.0339
     18 C         143.2740  142.4480  167.8395 C.3     1  UNL1        0.0938
     19 N         144.7319  142.4530  159.5980 N.pl3   1  UNL1       -0.2978
     20 H         145.3908  142.9618  159.0724 H       1  UNL1        0.1500
     21 C         143.8106  141.4876  158.9132 C.3     1  UNL1        0.1376
     22 C         143.2256  140.3378  159.6785 C.ar    1  UNL1        0.0979
     23 C         141.8070  140.4028  160.1617 C.ar    1  UNL1        0.1153
     24 N         141.2220  139.2530  160.9271 N.ar    1  UNL1       -0.2394
     25 C         142.0555  138.0383  161.2092 C.ar    1  UNL1        0.1195
     26 C         143.4740  137.9733  160.7260 C.ar    1  UNL1        0.1192
     27 N         144.0590  139.1230  159.9607 N.ar    1  UNL1       -0.2433
@<TRIPOS>BOND
     1     7     8    2
     2     8     1    1
     3     1     2   ar
     4     2     3   ar
     5     3     4   ar
     6     4    19    1
     7    19    21    1
     8    21    22    1
     9    22    23   ar
    10    23    24   ar
    11    24    25   ar
    12    25    26   ar
    13    26    27   ar
    14     4     5   ar
    15     5     6   ar
    16     8     9   am
    17     9    10    1
    18    10    11    1
    19    11    12    1
    20    12    13    1
    21    13    14    1
    22    14    15    1
    23    15    16    1
    24    16    17    1
    25    12    18    1
    26     6     1   ar
    27    18     9    1
    28    27    22   ar
    29    17    12    1
    30    19    20    1
@<TRIPOS>MOLECULE
*****
 27 30 0 0 0
SMALL
GASTEIGER

@<TRIPOS>ATOM
      1 C         138.6964  138.9628  165.2023 C.ar    1  UNL1        0.0919
      2 C         138.0707  139.9383  164.2499 C.ar    1  UNL1        0.1079
      3 N         138.0741  139.6554  162.7768 N.ar    1  UNL1       -0.2121
      4 C         138.7031  138.3972  162.2561 C.ar    1  UNL1        0.2172
      5 N         139.3288  137.4217  163.2086 N.ar    1  UNL1       -0.2121
      6 C         139.3254  137.7045  164.6817 C.ar    1  UNL1        0.1079
      7 O         137.6430  138.6333  167.5542 O.2     1  UNL1       -0.2698
      8 C         138.6931  139.2457  166.6753 C.2     1  UNL1        0.2521
      9 N         139.7397  140.1409  167.2695 N.am    1  UNL1       -0.2760
     10 C         140.8470  140.8210  166.5202 C.3     1  UNL1        0.0938
     11 C         141.6545  141.6136  167.5050 C.3     1  UNL1        0.0233
     12 C         141.0463  141.4234  168.8629 C.3     1  UNL1        0.0248
     13 C         140.3320  141.1406  170.1513 C.3     1  UNL1        0.0339
     14 C         140.8213  141.7530  171.4301 C.3     1  UNL1        0.1422
     15 O         142.0249  142.6482  171.4206 O.3     1  UNL1       -0.3538
     16 C         142.7391  142.9310  170.1323 C.3     1  UNL1        0.1422
     17 C         142.2499  142.3186  168.8535 C.3     1  UNL1        0.0339
     18 C         139.8629  140.5132  168.7174 C.3     1  UNL1        0.0938
     19 N         138.7065  138.1143  160.7830 N.pl3   1  UNL1       -0.2978
     20 H         138.1608  137.3787  160.4218 H       1  UNL1        0.1500
     21 C         139.5411  138.9521  159.8603 C.3     1  UNL1        0.1376
     22 C         138.9287  140.1227  159.1501 C.ar    1  UNL1        0.0979
     23 C         139.0112  141.4933  159.7540 C.ar    1  UNL1        0.1153
     24 N         138.3987  142.6639  159.0437 N.ar    1  UNL1       -0.2394
     25 C         137.7039  142.4641  157.7295 C.ar    1  UNL1        0.1195
     26 C         137.6214  141.0935  157.1256 C.ar    1  UNL1        0.1192
     27 N         138.2338  139.9229  157.8358 N.ar    1  UNL1       -0.2433
@<TRIPOS>BOND
     1     7     8    2
     2     8     1    1
     3     1     2   ar
     4     2     3   ar
     5     3     4   ar
     6     4    19    1
     7    19    21    1
     8    21    22    1
     9    22    23   ar
    10    23    24   ar
    11    24    25   ar
    12    25    26   ar
    13    26    27   ar
    14     4     5   ar
    15     5     6   ar
    16     8     9   am
    17     9    10    1
    18    10    11    1
    19    11    12    1
    20    12    13    1
    21    13    14    1
    22    14    15    1
    23    15    16    1
    24    16    17    1
    25    12    18    1
    26     6     1   ar
    27    18     9    1
    28    27    22   ar
    29    17    12    1
    30    19    20    1
@<TRIPOS>MOLECULE
*****
 27 30 0 0 0
SMALL
GASTEIGER

@<TRIPOS>ATOM
      1 C         138.7731  138.8924  165.2130 C.ar    1  UNL1        0.0919
      2 C         139.4814  137.6650  164.7211 C.ar    1  UNL1        0.1079
      3 N         139.5069  137.3509  163.2545 N.ar    1  UNL1       -0.2121
      4 C         138.8241  138.2642  162.2800 C.ar    1  UNL1        0.2172
      5 N         138.1158  139.4915  162.7719 N.ar    1  UNL1       -0.2121
      6 C         138.0903  139.8056  164.2385 C.ar    1  UNL1        0.1079
      7 O         137.6744  138.6263  167.5522 O.2     1  UNL1       -0.2698
      8 C         138.7476  139.2064  166.6795 C.2     1  UNL1        0.2521
      9 N         139.7954  140.1005  167.2733 N.am    1  UNL1       -0.2760
     10 C         140.9246  140.7504  166.5298 C.3     1  UNL1        0.0938
     11 C         141.7250  141.5532  167.5119 C.3     1  UNL1        0.0233
     12 C         141.0907  141.3997  168.8625 C.3     1  UNL1        0.0248
     13 C         140.3503  141.1534  170.1436 C.3     1  UNL1        0.0339
     14 C         140.8251  141.7865  171.4178 C.3     1  UNL1        0.1422
     15 O         142.0403  142.6658  171.4110 O.3     1  UNL1       -0.3538
     16 C         142.7807  142.9120  170.1300 C.3     1  UNL1        0.1422
     17 C         142.3059  142.2790  168.8557 C.3     1  UNL1        0.0339
     18 C         139.8981  140.5018  168.7151 C.3     1  UNL1        0.0938
     19 N         138.8496  137.9501  160.8134 N.pl3   1  UNL1       -0.2978
     20 H         138.4559  137.1104  160.4829 H       1  UNL1        0.1500
     21 C         139.4749  138.9153  159.8504 C.3     1  UNL1        0.1376
     22 C         140.5275  138.4428  158.8921 C.ar    1  UNL1        0.0979
     23 C         141.9792  138.6105  159.2300 C.ar    1  UNL1        0.1153
     24 N         143.0319  138.1379  158.2716 N.ar    1  UNL1       -0.2394
     25 C         142.6328  137.4976  156.9752 C.ar    1  UNL1        0.1195
     26 C         141.1810  137.3299  156.6372 C.ar    1  UNL1        0.1192
     27 N         140.1284  137.8024  157.5956 N.ar    1  UNL1       -0.2433
@<TRIPOS>BOND
     1     7     8    2
     2     8     1    1
     3     1     2   ar
     4     2     3   ar
     5     3     4   ar
     6     4    19    1
     7    19    21    1
     8    21    22    1
     9    22    23   ar
    10    23    24   ar
    11    24    25   ar
    12    25    26   ar
    13    26    27   ar
    14     4     5   ar
    15     5     6   ar
    16     8     9   am
    17     9    10    1
    18    10    11    1
    19    11    12    1
    20    12    13    1
    21    13    14    1
    22    14    15    1
    23    15    16    1
    24    16    17    1
    25    12    18    1
    26     6     1   ar
    27    18     9    1
    28    27    22   ar
    29    17    12    1
    30    19    20    1
@<TRIPOS>MOLECULE
*****
 27 30 0 0 0
SMALL
GASTEIGER

@<TRIPOS>ATOM
      1 C         142.8030  138.4601  164.9954 C.ar    1  UNL1        0.0919
      2 C         141.6918  137.5822  164.5009 C.ar    1  UNL1        0.1079
      3 N         141.4941  137.3809  163.0277 N.ar    1  UNL1       -0.2121
      4 C         142.4075  138.0574  162.0490 C.ar    1  UNL1        0.2172
      5 N         143.5188  138.9353  162.5435 N.ar    1  UNL1       -0.2121
      6 C         143.7165  139.1367  164.0168 C.ar    1  UNL1        0.1079
      7 O         144.0492  137.8757  167.1989 O.2     1  UNL1       -0.2698
      8 C         143.0007  138.6614  166.4686 C.2     1  UNL1        0.2521
      9 N         142.1499  139.6484  167.2115 N.am    1  UNL1       -0.2760
     10 C         141.0677  140.5015  166.6190 C.3     1  UNL1        0.0938
     11 C         140.4809  141.3359  167.7187 C.3     1  UNL1        0.0233
     12 C         141.2004  140.9985  168.9910 C.3     1  UNL1        0.0248
     13 C         142.0049  140.5598  170.1785 C.3     1  UNL1        0.0339
     14 C         141.7395  141.1600  171.5273 C.3     1  UNL1        0.1422
     15 O         140.6696  142.1989  171.6886 O.3     1  UNL1       -0.3538
     16 C         139.8651  142.6376  170.5011 C.3     1  UNL1        0.1422
     17 C         140.1305  142.0374  169.1523 C.3     1  UNL1        0.0339
     18 C         142.2319  139.9556  168.6775 C.3     1  UNL1        0.0938
     19 N         142.2098  137.8561  160.5758 N.pl3   1  UNL1       -0.2978
     20 H         142.6998  137.1428  160.1063 H       1  UNL1        0.1500
     21 C         141.2656  138.7415  159.8178 C.3     1  UNL1        0.1376
     22 C         140.0815  139.3447  160.5134 C.ar    1  UNL1        0.0979
     23 C         138.8722  138.5048  160.8004 C.ar    1  UNL1        0.1153
     24 N         137.6880  139.1080  161.4961 N.ar    1  UNL1       -0.2394
     25 C         137.7131  140.5511  161.9047 C.ar    1  UNL1        0.1195
     26 C         138.9223  141.3909  161.6176 C.ar    1  UNL1        0.1192
     27 N         140.1064  140.7877  160.9220 N.ar    1  UNL1       -0.2433
@<TRIPOS>BOND
     1     7     8    2
     2     8     1    1
     3     1     2   ar
     4     2     3   ar
     5     3     4   ar
     6     4    19    1
     7    19    21    1
     8    21    22    1
     9    22    23   ar
    10    23    24   ar
    11    24    25   ar
    12    25    26   ar
    13    26    27   ar
    14     4     5   ar
    15     5     6   ar
    16     8     9   am
    17     9    10    1
    18    10    11    1
    19    11    12    1
    20    12    13    1
    21    13    14    1
    22    14    15    1
    23    15    16    1
    24    16    17    1
    25    12    18    1
    26     6     1   ar
    27    18     9    1
    28    27    22   ar
    29    17    12    1
    30    19    20    1
@<TRIPOS>MOLECULE
*****
 27 30 0 0 0
SMALL
GASTEIGER

@<TRIPOS>ATOM
      1 C         138.5735  140.2687  164.1556 C.ar    1  UNL1        0.0919
      2 C         137.4750  141.1971  163.7295 C.ar    1  UNL1        0.1079
      3 N         137.3958  141.6616  162.3054 N.ar    1  UNL1       -0.2121
      4 C         138.4151  141.1978  161.3075 C.ar    1  UNL1        0.2172
      5 N         139.5136  140.2694  161.7336 N.ar    1  UNL1       -0.2121
      6 C         139.5928  139.8049  163.1577 C.ar    1  UNL1        0.1079
      7 O         137.9583  138.5415  165.9963 O.2     1  UNL1       -0.2698
      8 C         138.6526  139.8042  165.5796 C.2     1  UNL1        0.2521
      9 N         139.4261  140.6023  166.5869 N.am    1  UNL1       -0.2760
     10 C         140.1681  141.8782  166.3193 C.3     1  UNL1        0.0938
     11 C         140.7939  142.3291  167.6057 C.3     1  UNL1        0.0233
     12 C         140.4387  141.3318  168.6686 C.3     1  UNL1        0.0248
     13 C         140.0047  140.2567  169.6202 C.3     1  UNL1        0.0339
     14 C         140.4216  140.3163  171.0598 C.3     1  UNL1        0.1422
     15 O         141.2727  141.4510  171.5478 O.3     1  UNL1       -0.3538
     16 C         141.7068  142.5261  170.5962 C.3     1  UNL1        0.1422
     17 C         141.2898  142.4665  169.1566 C.3     1  UNL1        0.0339
     18 C         139.5934  140.2646  168.0389 C.3     1  UNL1        0.0938
     19 N         138.3360  141.6623  159.8834 N.pl3   1  UNL1       -0.2978
     20 H         137.7979  141.1588  159.2306 H       1  UNL1        0.1500
     21 C         139.0767  142.8940  159.4540 C.3     1  UNL1        0.1376
     22 C         139.8182  143.7146  160.4671 C.ar    1  UNL1        0.0979
     23 C         141.2934  143.5194  160.6559 C.ar    1  UNL1        0.1153
     24 N         142.0350  144.3401  161.6691 N.ar    1  UNL1       -0.2394
     25 C         141.3014  145.3560  162.4935 C.ar    1  UNL1        0.1195
     26 C         139.8262  145.5513  162.3046 C.ar    1  UNL1        0.1192
     27 N         139.0847  144.7306  161.2915 N.ar    1  UNL1       -0.2433
@<TRIPOS>BOND
     1     7     8    2
     2     8     1    1
     3     1     2   ar
     4     2     3   ar
     5     3     4   ar
     6     4    19    1
     7    19    21    1
     8    21    22    1
     9    22    23   ar
    10    23    24   ar
    11    24    25   ar
    12    25    26   ar
    13    26    27   ar
    14     4     5   ar
    15     5     6   ar
    16     8     9   am
    17     9    10    1
    18    10    11    1
    19    11    12    1
    20    12    13    1
    21    13    14    1
    22    14    15    1
    23    15    16    1
    24    16    17    1
    25    12    18    1
    26     6     1   ar
    27    18     9    1
    28    27    22   ar
    29    17    12    1
    30    19    20    1
@<TRIPOS>MOLECULE
*****
 27 30 0 0 0
SMALL
GASTEIGER

@<TRIPOS>ATOM
      1 C         143.4125  138.9439  165.0625 C.ar    1  UNL1        0.0919
      2 C         144.6172  139.5825  164.4373 C.ar    1  UNL1        0.1079
      3 N         144.7687  139.5975  162.9450 N.ar    1  UNL1       -0.2121
      4 C         143.7154  138.9738  162.0780 C.ar    1  UNL1        0.2172
      5 N         142.5107  138.3352  162.7032 N.ar    1  UNL1       -0.2121
      6 C         142.3593  138.3202  164.1955 C.ar    1  UNL1        0.1079
      7 O         143.9229  137.8541  167.3650 O.2     1  UNL1       -0.2698
      8 C         143.2611  138.9289  166.5547 C.2     1  UNL1        0.2521
      9 N         142.4479  139.9889  167.2367 N.am    1  UNL1       -0.2760
     10 C         141.7314  141.1210  166.5621 C.3     1  UNL1        0.0938
     11 C         141.0490  141.9346  167.6215 C.3     1  UNL1        0.0233
     12 C         141.3437  141.3054  168.9510 C.3     1  UNL1        0.0248
     13 C         141.7218  140.5688  170.2017 C.3     1  UNL1        0.0339
     14 C         141.2371  141.0565  171.5348 C.3     1  UNL1        0.1422
     15 O         140.3743  142.2807  171.6171 O.3     1  UNL1       -0.3538
     16 C         139.9962  143.0173  170.3664 C.3     1  UNL1        0.1422
     17 C         140.4809  142.5296  169.0333 C.3     1  UNL1        0.0339
     18 C         142.2082  140.1029  168.7131 C.3     1  UNL1        0.0938
     19 N         143.8669  138.9888  160.5857 N.pl3   1  UNL1       -0.2978
     20 H         144.1214  138.1661  160.1085 H       1  UNL1        0.1500
     21 C         143.6306  140.2571  159.8205 C.3     1  UNL1        0.1376
     22 C         143.1519  141.4859  160.5350 C.ar    1  UNL1        0.0979
     23 C         144.1293  142.5540  160.9274 C.ar    1  UNL1        0.1153
     24 N         143.6505  143.7829  161.6419 N.ar    1  UNL1       -0.2394
     25 C         142.1944  143.9438  161.9642 C.ar    1  UNL1        0.1195
     26 C         141.2171  142.8758  161.5718 C.ar    1  UNL1        0.1192
     27 N         141.6957  141.6469  160.8573 N.ar    1  UNL1       -0.2433
@<TRIPOS>BOND
     1     7     8    2
     2     8     1    1
     3     1     2   ar
     4     2     3   ar
     5     3     4   ar
     6     4    19    1
     7    19    21    1
     8    21    22    1
     9    22    23   ar
    10    23    24   ar
    11    24    25   ar
    12    25    26   ar
    13    26    27   ar
    14     4     5   ar
    15     5     6   ar
    16     8     9   am
    17     9    10    1
    18    10    11    1
    19    11    12    1
    20    12    13    1
    21    13    14    1
    22    14    15    1
    23    15    16    1
    24    16    17    1
    25    12    18    1
    26     6     1   ar
    27    18     9    1
    28    27    22   ar
    29    17    12    1
    30    19    20    1
@<TRIPOS>MOLECULE
*****
 27 30 0 0 0
SMALL
GASTEIGER

@<TRIPOS>ATOM
      1 C         144.4781  143.0333  164.0316 C.ar    1  UNL1        0.0919
      2 C         145.2572  141.8962  163.4398 C.ar    1  UNL1        0.1079
      3 N         145.3244  141.7278  161.9508 N.ar    1  UNL1       -0.2121
      4 C         144.6125  142.6964  161.0536 C.ar    1  UNL1        0.2172
      5 N         143.8334  143.8335  161.6454 N.ar    1  UNL1       -0.2121
      6 C         143.7662  144.0019  163.1344 C.ar    1  UNL1        0.1079
      7 O         145.2848  144.2131  166.2011 O.2     1  UNL1       -0.2698
      8 C         144.4109  143.2016  165.5205 C.2     1  UNL1        0.2521
      9 N         143.4698  142.3586  166.3289 N.am    1  UNL1       -0.2760
     10 C         142.5397  141.3119  165.7907 C.3     1  UNL1        0.0938
     11 C         141.7886  140.7206  166.9467 C.3     1  UNL1        0.0233
     12 C         142.2544  141.4018  168.1994 C.3     1  UNL1        0.0248
     13 C         142.8160  142.1674  169.3606 C.3     1  UNL1        0.0339
     14 C         142.3284  141.8857  170.7508 C.3     1  UNL1        0.1422
     15 O         141.2792  140.8385  170.9799 O.3     1  UNL1       -0.3538
     16 C         140.7176  140.0729  169.8187 C.3     1  UNL1        0.1422
     17 C         141.2052  140.3546  168.4284 C.3     1  UNL1        0.0339
     18 C         143.2934  142.4141  167.8176 C.3     1  UNL1        0.0938
     19 N         144.6797  142.5280  159.5645 N.pl3   1  UNL1       -0.2978
     20 H         145.0858  143.2308  159.0075 H       1  UNL1        0.1500
     21 C         144.1281  141.2888  158.9242 C.3     1  UNL1        0.1376
     22 C         144.6079  140.8689  157.5666 C.ar    1  UNL1        0.0979
     23 C         145.6342  141.6921  156.8461 C.ar    1  UNL1        0.1153
     24 N         146.1141  141.2722  155.4884 N.ar    1  UNL1       -0.2394
     25 C         145.5677  140.0290  154.8511 C.ar    1  UNL1        0.1195
     26 C         144.5415  139.2058  155.5716 C.ar    1  UNL1        0.1192
     27 N         144.0616  139.6257  156.9293 N.ar    1  UNL1       -0.2433
@<TRIPOS>BOND
     1     7     8    2
     2     8     1    1
     3     1     2   ar
     4     2     3   ar
     5     3     4   ar
     6     4    19    1
     7    19    21    1
     8    21    22    1
     9    22    23   ar
    10    23    24   ar
    11    24    25   ar
    12    25    26   ar
    13    26    27   ar
    14     4     5   ar
    15     5     6   ar
    16     8     9   am
    17     9    10    1
    18    10    11    1
    19    11    12    1
    20    12    13    1
    21    13    14    1
    22    14    15    1
    23    15    16    1
    24    16    17    1
    25    12    18    1
    26     6     1   ar
    27    18     9    1
    28    27    22   ar
    29    17    12    1
    30    19    20    1
