@<TRIPOS>MOLECULE
*****
 45 51 0 0 0
SMALL
GASTEIGER

@<TRIPOS>ATOM
      1 N         142.6067  139.6199  155.1579 N.pl3   1  UNL1       -0.2696
      2 C         141.2639  140.1846  154.8004 C.3     1  UNL1        0.1189
      3 C         141.1232  141.6453  154.4896 C.3     1  UNL1        0.1216
      4 N         142.3253  142.5412  154.5364 N.am    1  UNL1       -0.2403
      5 C         142.1845  144.0019  154.2257 C.2     1  UNL1        0.3078
      6 O         143.3867  144.8979  154.2725 O.2     1  UNL1       -0.2522
      7 N         140.8417  144.5667  153.8681 N.am    1  UNL1       -0.2901
      8 C         143.6682  141.9765  154.8940 C.ar    1  UNL1        0.0689
      9 C         144.8702  142.8725  154.9409 C.ar    1  UNL1        0.0162
     10 C         146.2130  142.3078  155.2984 C.ar    1  UNL1        0.0014
     11 C         146.3538  140.8471  155.6092 C.ar    1  UNL1        0.0014
     12 C         145.1517  139.9511  155.5624 C.ar    1  UNL1        0.0161
     13 C         143.8089  140.5158  155.2048 C.ar    1  UNL1        0.0666
     14 H         140.0527  143.9786  153.8374 H       1  UNL1        0.1509
     15 C         140.7010  146.0274  153.5573 C.3     1  UNL1        0.0730
     16 C         140.0001  146.9356  154.5238 C.3     1  UNL1        0.0185
     17 C         140.5603  147.4880  153.2466 C.3     1  UNL1        0.0017
     18 C         140.4195  148.9487  152.9358 C.3     1  UNL1        0.0006
     19 C         141.1203  148.0405  151.9695 C.3     1  UNL1        0.0017
     20 C         141.2611  146.5798  152.2802 C.3     1  UNL1        0.0185
     21 C         139.8866  149.0991  153.8841 C.3     1  UNL1        0.0102
     22 C         139.1586  149.3046  155.1794 C.3     1  UNL1        0.0687
     23 C         139.7187  149.8570  153.9023 C.3     1  UNL1        0.0086
     24 C         139.2993  147.8439  155.4901 C.3     1  UNL1        0.0102
     25 C         138.4578  150.2128  156.1458 C.2     1  UNL1        0.2184
     26 N         137.7196  149.6356  157.3171 N.am    1  UNL1       -0.3288
     27 O         138.4951  151.6983  155.9408 O.2     1  UNL1       -0.2754
     28 H         137.6951  148.6606  157.4516 H       1  UNL1        0.1449
     29 H         137.2596  150.2317  157.9514 H       1  UNL1        0.1449
     30 C         143.0290  135.2378  156.0902 C.ar    1  UNL1        0.0675
     31 C         142.9656  135.6985  154.6641 C.ar    1  UNL1        0.0190
     32 C         142.8248  137.1592  154.3534 C.ar    1  UNL1        0.0359
     33 C         142.7475  138.1592  155.4687 C.ar    1  UNL1        0.1356
     34 N         142.8109  137.6985  156.8948 N.ar    1  UNL1       -0.2276
     35 C         142.9516  136.2378  157.2056 C.ar    1  UNL1        0.1147
     36 N         143.4512  130.8557  157.0225 N.3     1  UNL1       -0.2723
     37 C         142.3627  131.3255  156.1033 C.3     1  UNL1        0.0937
     38 C         142.2220  132.7862  155.7926 C.3     1  UNL1        0.1082
     39 N         143.1697  133.7771  156.4009 N.pl3   1  UNL1       -0.3034
     40 C         144.2580  133.3073  157.3200 C.3     1  UNL1        0.1082
     41 C         144.3988  131.8466  157.6308 C.3     1  UNL1        0.0937
     42 C         144.5138  129.7255  158.4693 C.3     1  UNL1        0.0160
     43 C         143.5919  129.3950  157.3332 C.3     1  UNL1        0.0456
     44 C         142.6700  129.0645  156.1971 C.3     1  UNL1        0.0160
     45 C         143.7326  127.9343  157.6440 C.3     1  UNL1        0.0160
@<TRIPOS>BOND
     1    42    43    1
     2    43    44    1
     3    43    45    1
     4    43    36    1
     5    36    37    1
     6    37    38    1
     7    38    39    1
     8    39    30    1
     9    30    31   ar
    10    31    32   ar
    11    32    33   ar
    12    33     1    1
    13     1     2    1
    14     2     3    1
    15     3     4    1
    16     4     5   am
    17     5     6    2
    18     5     7   am
    19    15     7    1
    20    15    16    1
    21    16    17    1
    22    17    18    1
    23    18    19    1
    24    19    20    1
    25    20    21    1
    26    21    22    1
    27    22    25    1
    28    25    26   am
    29    25    27    2
    30    22    23    1
    31    22    24    1
    32     4     8    1
    33     8     9   ar
    34     9    10   ar
    35    10    11   ar
    36    11    12   ar
    37    12    13   ar
    38    33    34   ar
    39    34    35   ar
    40    39    40    1
    41    40    41    1
    42    41    36    1
    43    35    30   ar
    44    13     1    1
    45    20    15    1
    46    13     8   ar
    47    24    16    1
    48    23    18    1
    49     7    14    1
    50    26    28    1
    51    26    29    1
@<TRIPOS>MOLECULE
*****
 45 51 0 0 0
SMALL
GASTEIGER

@<TRIPOS>ATOM
      1 N         141.8824  141.7740  155.3104 N.pl3   1  UNL1       -0.2696
      2 C         140.8717  140.7314  155.6864 C.3     1  UNL1        0.1189
      3 C         141.3040  139.3114  155.9029 C.3     1  UNL1        0.1216
      4 N         142.7469  138.9341  155.7433 N.am    1  UNL1       -0.2403
      5 C         143.1791  137.5141  155.9597 C.2     1  UNL1        0.3078
      6 O         144.6222  137.1368  155.8001 O.2     1  UNL1       -0.2522
      7 N         142.1685  136.4715  156.3358 N.am    1  UNL1       -0.2901
      8 C         143.7576  139.9767  155.3672 C.ar    1  UNL1        0.0689
      9 C         145.2006  139.5994  155.2077 C.ar    1  UNL1        0.0162
     10 C         146.2113  140.6420  154.8316 C.ar    1  UNL1        0.0014
     11 C         145.7790  142.0619  154.6152 C.ar    1  UNL1        0.0014
     12 C         144.3361  142.4393  154.7748 C.ar    1  UNL1        0.0161
     13 C         143.3254  141.3967  155.1508 C.ar    1  UNL1        0.0666
     14 H         141.2214  136.7191  156.4405 H       1  UNL1        0.1509
     15 C         142.6007  135.0515  156.5522 C.3     1  UNL1        0.0730
     16 C         141.9346  133.9411  155.7951 C.3     1  UNL1        0.0185
     17 C         143.0330  133.6316  156.7687 C.3     1  UNL1        0.0017
     18 C         143.4652  132.2116  156.9851 C.3     1  UNL1        0.0006
     19 C         144.1313  133.3220  157.7422 C.3     1  UNL1        0.0017
     20 C         143.6990  134.7420  157.5258 C.3     1  UNL1        0.0185
     21 C         142.7195  131.8731  156.2536 C.3     1  UNL1        0.0102
     22 C         141.7008  131.4106  155.2544 C.3     1  UNL1        0.0687
     23 C         142.7991  131.1011  156.2280 C.3     1  UNL1        0.0086
     24 C         141.2685  132.8306  155.0380 C.3     1  UNL1        0.0102
     25 C         141.0347  130.3002  154.4974 C.2     1  UNL1        0.2184
     26 N         139.6482  129.8650  154.8695 N.am    1  UNL1       -0.3288
     27 O         141.7550  129.6249  153.3682 O.2     1  UNL1       -0.2754
     28 H         139.1754  130.3082  155.6106 H       1  UNL1        0.1449
     29 H         139.2110  129.1362  154.3726 H       1  UNL1        0.1449
     30 C         140.5856  146.0339  154.6610 C.ar    1  UNL1        0.0675
     31 C         140.6271  145.0781  153.5057 C.ar    1  UNL1        0.0190
     32 C         141.0593  143.6582  153.7222 C.ar    1  UNL1        0.0359
     33 C         141.4501  143.1940  155.0939 C.ar    1  UNL1        0.1356
     34 N         141.4087  144.1497  156.2493 N.ar    1  UNL1       -0.2276
     35 C         140.9764  145.5697  156.0329 C.ar    1  UNL1        0.1147
     36 N         139.2888  150.2938  154.0117 N.3     1  UNL1       -0.2723
     37 C         138.8726  149.5643  155.2545 C.3     1  UNL1        0.0937
     38 C         139.3049  148.1443  155.4710 C.3     1  UNL1        0.1082
     39 N         140.1533  147.4539  154.4446 N.pl3   1  UNL1       -0.3034
     40 C         140.5695  148.1834  153.2018 C.3     1  UNL1        0.1082
     41 C         140.1373  149.6033  152.9853 C.3     1  UNL1        0.0937
     42 C         139.1675  151.5856  152.3334 C.3     1  UNL1        0.0160
     43 C         138.8566  151.7138  153.7952 C.3     1  UNL1        0.0456
     44 C         138.5457  151.8420  155.2570 C.3     1  UNL1        0.0160
     45 C         138.4243  153.1337  153.5788 C.3     1  UNL1        0.0160
@<TRIPOS>BOND
     1    42    43    1
     2    43    44    1
     3    43    45    1
     4    43    36    1
     5    36    37    1
     6    37    38    1
     7    38    39    1
     8    39    30    1
     9    30    31   ar
    10    31    32   ar
    11    32    33   ar
    12    33     1    1
    13     1     2    1
    14     2     3    1
    15     3     4    1
    16     4     5   am
    17     5     6    2
    18     5     7   am
    19    15     7    1
    20    15    16    1
    21    16    17    1
    22    17    18    1
    23    18    19    1
    24    19    20    1
    25    20    21    1
    26    21    22    1
    27    22    25    1
    28    25    26   am
    29    25    27    2
    30    22    23    1
    31    22    24    1
    32     4     8    1
    33     8     9   ar
    34     9    10   ar
    35    10    11   ar
    36    11    12   ar
    37    12    13   ar
    38    33    34   ar
    39    34    35   ar
    40    39    40    1
    41    40    41    1
    42    41    36    1
    43    35    30   ar
    44    13     1    1
    45    20    15    1
    46    13     8   ar
    47    24    16    1
    48    23    18    1
    49     7    14    1
    50    26    28    1
    51    26    29    1
@<TRIPOS>MOLECULE
*****
 45 51 0 0 0
SMALL
GASTEIGER

@<TRIPOS>ATOM
      1 N         141.2348  140.3173  155.7012 N.pl3   1  UNL1       -0.2696
      2 C         142.5680  139.8772  156.2294 C.3     1  UNL1        0.1189
      3 C         142.8942  138.4158  156.3184 C.3     1  UNL1        0.1216
      4 N         141.8873  137.3945  155.8791 N.am    1  UNL1       -0.2403
      5 C         142.2135  135.9331  155.9681 C.2     1  UNL1        0.3078
      6 O         141.2065  134.9118  155.5288 O.2     1  UNL1       -0.2522
      7 N         143.5466  135.4930  156.4962 N.am    1  UNL1       -0.2901
      8 C         140.5541  137.8345  155.3509 C.ar    1  UNL1        0.0689
      9 C         139.5471  136.8132  154.9117 C.ar    1  UNL1        0.0162
     10 C         138.2140  137.2533  154.3835 C.ar    1  UNL1        0.0014
     11 C         137.8878  138.7147  154.2945 C.ar    1  UNL1        0.0014
     12 C         138.8947  139.7360  154.7338 C.ar    1  UNL1        0.0161
     13 C         140.2278  139.2959  155.2620 C.ar    1  UNL1        0.0666
     14 H         144.2075  136.1633  156.7845 H       1  UNL1        0.1509
     15 C         143.8729  134.0316  156.5852 C.3     1  UNL1        0.0730
     16 C         143.6356  133.1370  155.4047 C.3     1  UNL1        0.0185
     17 C         144.1991  132.5702  156.6741 C.3     1  UNL1        0.0017
     18 C         144.5253  131.1088  156.7631 C.3     1  UNL1        0.0006
     19 C         144.7625  132.0034  157.9434 C.3     1  UNL1        0.0017
     20 C         144.4363  133.4648  157.8545 C.3     1  UNL1        0.0185
     21 C         144.1868  130.9703  155.7277 C.3     1  UNL1        0.0102
     22 C         143.7245  130.7810  154.3133 C.3     1  UNL1        0.0687
     23 C         144.2880  130.2142  155.5826 C.3     1  UNL1        0.0086
     24 C         143.3983  132.2424  154.2244 C.3     1  UNL1        0.0102
     25 C         143.4873  129.8864  153.1329 C.2     1  UNL1        0.2184
     26 N         144.6137  129.5677  152.1949 N.am    1  UNL1       -0.3288
     27 O         142.1236  129.3104  152.8905 O.2     1  UNL1       -0.2754
     28 H         145.5087  129.9457  152.3541 H       1  UNL1        0.1449
     29 H         144.4579  128.9805  151.4202 H       1  UNL1        0.1449
     30 C         140.2562  144.7015  155.4344 C.ar    1  UNL1        0.0675
     31 C         141.0892  144.0527  154.3689 C.ar    1  UNL1        0.0190
     32 C         141.4154  142.5913  154.4579 C.ar    1  UNL1        0.0359
     33 C         140.9086  141.7787  155.6123 C.ar    1  UNL1        0.1356
     34 N         140.0756  142.4274  156.6779 N.ar    1  UNL1       -0.2276
     35 C         139.7494  143.8888  156.5889 C.ar    1  UNL1        0.1147
     36 N         139.2775  149.0856  155.1676 N.3     1  UNL1       -0.2723
     37 C         140.0150  148.4123  154.0482 C.3     1  UNL1        0.0937
     38 C         140.3412  146.9509  154.1372 C.3     1  UNL1        0.1082
     39 N         139.9300  146.1628  155.3455 N.pl3   1  UNL1       -0.3034
     40 C         139.1926  146.8362  156.4648 C.3     1  UNL1        0.1082
     41 C         138.8664  148.2976  156.3758 C.3     1  UNL1        0.0937
     42 C         139.5006  150.5847  153.6834 C.3     1  UNL1        0.0160
     43 C         138.9513  150.5470  155.0786 C.3     1  UNL1        0.0456
     44 C         138.4020  150.5093  156.4739 C.3     1  UNL1        0.0160
     45 C         138.6251  152.0084  154.9897 C.3     1  UNL1        0.0160
@<TRIPOS>BOND
     1    42    43    1
     2    43    44    1
     3    43    45    1
     4    43    36    1
     5    36    37    1
     6    37    38    1
     7    38    39    1
     8    39    30    1
     9    30    31   ar
    10    31    32   ar
    11    32    33   ar
    12    33     1    1
    13     1     2    1
    14     2     3    1
    15     3     4    1
    16     4     5   am
    17     5     6    2
    18     5     7   am
    19    15     7    1
    20    15    16    1
    21    16    17    1
    22    17    18    1
    23    18    19    1
    24    19    20    1
    25    20    21    1
    26    21    22    1
    27    22    25    1
    28    25    26   am
    29    25    27    2
    30    22    23    1
    31    22    24    1
    32     4     8    1
    33     8     9   ar
    34     9    10   ar
    35    10    11   ar
    36    11    12   ar
    37    12    13   ar
    38    33    34   ar
    39    34    35   ar
    40    39    40    1
    41    40    41    1
    42    41    36    1
    43    35    30   ar
    44    13     1    1
    45    20    15    1
    46    13     8   ar
    47    24    16    1
    48    23    18    1
    49     7    14    1
    50    26    28    1
    51    26    29    1
@<TRIPOS>MOLECULE
*****
 45 51 0 0 0
SMALL
GASTEIGER

@<TRIPOS>ATOM
      1 N         141.6126  141.7255  154.6121 N.pl3   1  UNL1       -0.2696
      2 C         140.6199  140.6672  154.2320 C.3     1  UNL1        0.1189
      3 C         141.0251  139.2230  154.2348 C.3     1  UNL1        0.1216
      4 N         142.4231  138.8371  154.6176 N.am    1  UNL1       -0.2403
      5 C         142.8284  137.3929  154.6204 C.2     1  UNL1        0.3078
      6 O         144.2265  137.0070  155.0033 O.2     1  UNL1       -0.2522
      7 N         141.8357  136.3346  154.2403 N.am    1  UNL1       -0.2901
      8 C         143.4159  139.8954  154.9977 C.ar    1  UNL1        0.0689
      9 C         144.8139  139.5095  155.3806 C.ar    1  UNL1        0.0162
     10 C         145.8067  140.5678  155.7607 C.ar    1  UNL1        0.0014
     11 C         145.4014  142.0120  155.7579 C.ar    1  UNL1        0.0014
     12 C         144.0034  142.3979  155.3750 C.ar    1  UNL1        0.0161
     13 C         143.0107  141.3396  154.9950 C.ar    1  UNL1        0.0666
     14 H         140.9181  136.5879  153.9890 H       1  UNL1        0.1509
     15 C         142.2410  134.8904  154.2431 C.3     1  UNL1        0.0730
     16 C         142.9666  134.3173  155.4242 C.3     1  UNL1        0.0185
     17 C         142.6463  133.4462  154.2458 C.3     1  UNL1        0.0017
     18 C         143.0516  132.0020  154.2486 C.3     1  UNL1        0.0006
     19 C         142.3259  132.5751  153.0675 C.3     1  UNL1        0.0017
     20 C         141.9207  134.0193  153.0648 C.3     1  UNL1        0.0185
     21 C         143.4937  132.1280  155.2459 C.3     1  UNL1        0.0102
     22 C         144.0975  132.3000  156.6081 C.3     1  UNL1        0.0687
     23 C         143.7772  131.4289  155.4298 C.3     1  UNL1        0.0086
     24 C         143.6923  133.7442  156.6053 C.3     1  UNL1        0.0102
     25 C         144.8232  131.7270  157.7892 C.2     1  UNL1        0.2184
     26 N         144.3921  130.4122  158.3686 N.am    1  UNL1       -0.3288
     27 O         145.9799  132.4686  158.3909 O.2     1  UNL1       -0.2754
     28 H         143.6329  129.9254  157.9737 H       1  UNL1        0.1449
     29 H         144.8684  130.0360  159.1438 H       1  UNL1        0.1449
     30 C         140.3967  146.0581  154.6038 C.ar    1  UNL1        0.0675
     31 C         140.8688  145.4092  153.3365 C.ar    1  UNL1        0.0190
     32 C         141.2741  143.9650  153.3393 C.ar    1  UNL1        0.0359
     33 C         141.2073  143.1697  154.6093 C.ar    1  UNL1        0.1356
     34 N         140.7352  143.8186  155.8767 N.ar    1  UNL1       -0.2276
     35 C         140.3299  145.2629  155.8739 C.ar    1  UNL1        0.1147
     36 N         139.1809  150.3908  154.5955 N.3     1  UNL1       -0.2723
     37 C         140.0745  149.8605  153.5136 C.3     1  UNL1        0.0937
     38 C         140.4798  148.4163  153.5164 C.3     1  UNL1        0.1082
     39 N         139.9914  147.5024  154.6010 N.pl3   1  UNL1       -0.3034
     40 C         139.0979  148.0326  155.6828 C.3     1  UNL1        0.1082
     41 C         138.6926  149.4768  155.6800 C.3     1  UNL1        0.0937
     42 C         138.8117  151.8423  153.0932 C.3     1  UNL1        0.0160
     43 C         138.7756  151.8350  154.5927 C.3     1  UNL1        0.0456
     44 C         138.7394  151.8277  156.0923 C.3     1  UNL1        0.0160
     45 C         138.3703  153.2792  154.5900 C.3     1  UNL1        0.0160
@<TRIPOS>BOND
     1    42    43    1
     2    43    44    1
     3    43    45    1
     4    43    36    1
     5    36    37    1
     6    37    38    1
     7    38    39    1
     8    39    30    1
     9    30    31   ar
    10    31    32   ar
    11    32    33   ar
    12    33     1    1
    13     1     2    1
    14     2     3    1
    15     3     4    1
    16     4     5   am
    17     5     6    2
    18     5     7   am
    19    15     7    1
    20    15    16    1
    21    16    17    1
    22    17    18    1
    23    18    19    1
    24    19    20    1
    25    20    21    1
    26    21    22    1
    27    22    25    1
    28    25    26   am
    29    25    27    2
    30    22    23    1
    31    22    24    1
    32     4     8    1
    33     8     9   ar
    34     9    10   ar
    35    10    11   ar
    36    11    12   ar
    37    12    13   ar
    38    33    34   ar
    39    34    35   ar
    40    39    40    1
    41    40    41    1
    42    41    36    1
    43    35    30   ar
    44    13     1    1
    45    20    15    1
    46    13     8   ar
    47    24    16    1
    48    23    18    1
    49     7    14    1
    50    26    28    1
    51    26    29    1
@<TRIPOS>MOLECULE
*****
 45 51 0 0 0
SMALL
GASTEIGER

@<TRIPOS>ATOM
      1 N         141.0491  141.1281  156.7512 N.pl3   1  UNL1       -0.2696
      2 C         140.4277  141.8508  155.5930 C.3     1  UNL1        0.1189
      3 C         140.1018  143.3105  155.7074 C.3     1  UNL1        0.1216
      4 N         140.3972  144.0475  156.9800 N.am    1  UNL1       -0.2403
      5 C         140.0712  145.5071  157.0943 C.2     1  UNL1        0.3078
      6 O         140.3666  146.2441  158.3670 O.2     1  UNL1       -0.2522
      7 N         139.4498  146.2298  155.9361 N.am    1  UNL1       -0.2901
      8 C         141.0185  143.3248  158.1383 C.ar    1  UNL1        0.0689
      9 C         141.3139  144.0617  159.4109 C.ar    1  UNL1        0.0162
     10 C         141.9353  143.3390  160.5691 C.ar    1  UNL1        0.0014
     11 C         142.2613  141.8794  160.4548 C.ar    1  UNL1        0.0014
     12 C         141.9659  141.1424  159.1822 C.ar    1  UNL1        0.0161
     13 C         141.3445  141.8651  158.0239 C.ar    1  UNL1        0.0666
     14 H         139.2559  145.7461  155.1008 H       1  UNL1        0.1509
     15 C         139.1238  147.6895  156.0505 C.3     1  UNL1        0.0730
     16 C         139.3367  148.5997  154.8772 C.3     1  UNL1        0.0185
     17 C         138.7979  149.1492  156.1648 C.3     1  UNL1        0.0017
     18 C         138.4719  150.6089  156.2792 C.3     1  UNL1        0.0006
     19 C         138.2590  149.6987  157.4523 C.3     1  UNL1        0.0017
     20 C         138.5850  148.2390  157.3379 C.3     1  UNL1        0.0185
     21 C         138.7896  150.7613  155.2392 C.3     1  UNL1        0.0102
     22 C         139.2236  150.9695  153.8185 C.3     1  UNL1        0.0687
     23 C         138.6848  151.5191  155.1060 C.3     1  UNL1        0.0086
     24 C         139.5496  149.5099  153.7041 C.3     1  UNL1        0.0102
     25 C         139.4365  151.8797  152.6454 C.2     1  UNL1        0.2184
     26 N         138.3099  152.7345  152.1451 N.am    1  UNL1       -0.3288
     27 O         140.7759  151.9351  151.9725 O.2     1  UNL1       -0.2754
     28 H         137.4308  152.6981  152.5868 H       1  UNL1        0.1449
     29 H         138.4496  153.3319  151.3752 H       1  UNL1        0.1449
     30 C         142.0270  136.7491  156.4082 C.ar    1  UNL1        0.0675
     31 C         140.6042  137.1878  156.5899 C.ar    1  UNL1        0.0190
     32 C         140.2782  138.6475  156.7043 C.ar    1  UNL1        0.0359
     33 C         141.3751  139.6684  156.6369 C.ar    1  UNL1        0.1356
     34 N         142.7980  139.2297  156.4551 N.ar    1  UNL1       -0.2276
     35 C         143.1240  137.7700  156.3408 C.ar    1  UNL1        0.1147
     36 N         143.0050  132.3700  156.0651 N.3     1  UNL1       -0.2723
     37 C         143.8151  133.2508  156.9695 C.3     1  UNL1        0.0937
     38 C         143.4892  134.7105  157.0839 C.3     1  UNL1        0.1082
     39 N         142.3530  135.2894  156.2938 N.pl3   1  UNL1       -0.3034
     40 C         141.5429  134.4086  155.3895 C.3     1  UNL1        0.1082
     41 C         141.8689  132.9489  155.2751 C.3     1  UNL1        0.0937
     42 C         144.6499  131.1522  156.6230 C.3     1  UNL1        0.0160
     43 C         143.3309  130.9104  155.9507 C.3     1  UNL1        0.0456
     44 C         142.0120  130.6685  155.2785 C.3     1  UNL1        0.0160
     45 C         143.6569  129.4507  155.8364 C.3     1  UNL1        0.0160
@<TRIPOS>BOND
     1    42    43    1
     2    43    44    1
     3    43    45    1
     4    43    36    1
     5    36    37    1
     6    37    38    1
     7    38    39    1
     8    39    30    1
     9    30    31   ar
    10    31    32   ar
    11    32    33   ar
    12    33     1    1
    13     1     2    1
    14     2     3    1
    15     3     4    1
    16     4     5   am
    17     5     6    2
    18     5     7   am
    19    15     7    1
    20    15    16    1
    21    16    17    1
    22    17    18    1
    23    18    19    1
    24    19    20    1
    25    20    21    1
    26    21    22    1
    27    22    25    1
    28    25    26   am
    29    25    27    2
    30    22    23    1
    31    22    24    1
    32     4     8    1
    33     8     9   ar
    34     9    10   ar
    35    10    11   ar
    36    11    12   ar
    37    12    13   ar
    38    33    34   ar
    39    34    35   ar
    40    39    40    1
    41    40    41    1
    42    41    36    1
    43    35    30   ar
    44    13     1    1
    45    20    15    1
    46    13     8   ar
    47    24    16    1
    48    23    18    1
    49     7    14    1
    50    26    28    1
    51    26    29    1
@<TRIPOS>MOLECULE
*****
 45 51 0 0 0
SMALL
GASTEIGER

@<TRIPOS>ATOM
      1 N         140.7477  141.5185  155.0241 N.pl3   1  UNL1       -0.2696
      2 C         141.4148  140.8225  153.8750 C.3     1  UNL1        0.1189
      3 C         141.6744  139.3466  153.9406 C.3     1  UNL1        0.1216
      4 N         141.2669  138.5667  155.1553 N.am    1  UNL1       -0.2403
      5 C         141.5265  137.0908  155.2208 C.2     1  UNL1        0.3078
      6 O         141.1189  136.3108  156.4356 O.2     1  UNL1       -0.2522
      7 N         142.1936  136.3948  154.0717 N.am    1  UNL1       -0.2901
      8 C         140.5997  139.2626  156.3045 C.ar    1  UNL1        0.0689
      9 C         140.1922  138.4827  157.5192 C.ar    1  UNL1        0.0162
     10 C         139.5251  139.1787  158.6683 C.ar    1  UNL1        0.0014
     11 C         139.2655  140.6546  158.6027 C.ar    1  UNL1        0.0014
     12 C         139.6730  141.4345  157.3880 C.ar    1  UNL1        0.0161
     13 C         140.3401  140.7385  156.2389 C.ar    1  UNL1        0.0666
     14 H         142.4611  136.9067  153.2744 H       1  UNL1        0.1509
     15 C         142.4532  134.9189  154.1373 C.3     1  UNL1        0.0730
     16 C         143.1690  134.3350  155.3192 C.3     1  UNL1        0.0185
     17 C         142.7127  133.4430  154.2029 C.3     1  UNL1        0.0017
     18 C         142.9723  131.9671  154.2685 C.3     1  UNL1        0.0006
     19 C         142.2566  132.5509  153.0866 C.3     1  UNL1        0.0017
     20 C         141.9970  134.0268  153.0210 C.3     1  UNL1        0.0185
     21 C         143.4677  132.0973  155.2398 C.3     1  UNL1        0.0102
     22 C         144.1443  132.2753  156.5667 C.3     1  UNL1        0.0687
     23 C         143.6881  131.3832  155.4504 C.3     1  UNL1        0.0086
     24 C         143.8847  133.7512  156.5011 C.3     1  UNL1        0.0102
     25 C         144.8600  131.6915  157.7485 C.2     1  UNL1        0.2184
     26 N         144.4133  130.3797  158.3229 N.am    1  UNL1       -0.3288
     27 O         146.0225  132.4193  158.3559 O.2     1  UNL1       -0.2754
     28 H         143.6504  129.9020  157.9243 H       1  UNL1        0.1449
     29 H         144.8831  129.9965  159.0986 H       1  UNL1        0.1449
     30 C         139.9689  145.9462  154.8274 C.ar    1  UNL1        0.0675
     31 C         141.3422  145.4401  155.1560 C.ar    1  UNL1        0.0190
     32 C         141.6018  143.9642  155.2215 C.ar    1  UNL1        0.0359
     33 C         140.4881  142.9944  154.9585 C.ar    1  UNL1        0.1356
     34 N         139.1148  143.5005  154.6299 N.ar    1  UNL1       -0.2276
     35 C         138.8552  144.9764  154.5643 C.ar    1  UNL1        0.1147
     36 N         139.1902  150.3740  154.6306 N.3     1  UNL1       -0.2723
     37 C         138.6034  149.5580  155.7442 C.3     1  UNL1        0.0937
     38 C         138.8630  148.0821  155.8098 C.3     1  UNL1        0.1082
     39 N         139.7094  147.4221  154.7618 N.pl3   1  UNL1       -0.3034
     40 C         140.2961  148.2381  153.6483 C.3     1  UNL1        0.1082
     41 C         140.0365  149.7140  153.5827 C.3     1  UNL1        0.0937
     42 C         138.8400  151.9004  156.0614 C.3     1  UNL1        0.0160
     43 C         138.9306  151.8499  154.5650 C.3     1  UNL1        0.0456
     44 C         139.0212  151.7993  153.0686 C.3     1  UNL1        0.0160
     45 C         138.6710  153.3258  154.4994 C.3     1  UNL1        0.0160
@<TRIPOS>BOND
     1    42    43    1
     2    43    44    1
     3    43    45    1
     4    43    36    1
     5    36    37    1
     6    37    38    1
     7    38    39    1
     8    39    30    1
     9    30    31   ar
    10    31    32   ar
    11    32    33   ar
    12    33     1    1
    13     1     2    1
    14     2     3    1
    15     3     4    1
    16     4     5   am
    17     5     6    2
    18     5     7   am
    19    15     7    1
    20    15    16    1
    21    16    17    1
    22    17    18    1
    23    18    19    1
    24    19    20    1
    25    20    21    1
    26    21    22    1
    27    22    25    1
    28    25    26   am
    29    25    27    2
    30    22    23    1
    31    22    24    1
    32     4     8    1
    33     8     9   ar
    34     9    10   ar
    35    10    11   ar
    36    11    12   ar
    37    12    13   ar
    38    33    34   ar
    39    34    35   ar
    40    39    40    1
    41    40    41    1
    42    41    36    1
    43    35    30   ar
    44    13     1    1
    45    20    15    1
    46    13     8   ar
    47    24    16    1
    48    23    18    1
    49     7    14    1
    50    26    28    1
    51    26    29    1
@<TRIPOS>MOLECULE
*****
 45 51 0 0 0
SMALL
GASTEIGER

@<TRIPOS>ATOM
      1 N         142.9593  140.7517  160.7046 N.pl3   1  UNL1       -0.2696
      2 C         143.9879  141.8422  160.6540 C.3     1  UNL1        0.1189
      3 C         144.7659  142.0815  159.3940 C.3     1  UNL1        0.1216
      4 N         144.5152  141.2304  158.1847 N.am    1  UNL1       -0.2403
      5 C         145.2931  141.4697  156.9247 C.2     1  UNL1        0.3078
      6 O         145.0424  140.6185  155.7153 O.2     1  UNL1       -0.2522
      7 N         146.3218  142.5602  156.8741 N.am    1  UNL1       -0.2901
      8 C         143.4865  140.1398  158.2352 C.ar    1  UNL1        0.0689
      9 C         143.2358  139.2886  157.0259 C.ar    1  UNL1        0.0162
     10 C         142.2071  138.1981  157.0764 C.ar    1  UNL1        0.0014
     11 C         141.4292  137.9588  158.3364 C.ar    1  UNL1        0.0014
     12 C         141.6799  138.8099  159.5458 C.ar    1  UNL1        0.0161
     13 C         142.7085  139.9004  159.4952 C.ar    1  UNL1        0.0666
     14 H         146.4864  143.1189  157.6679 H       1  UNL1        0.1509
     15 C         147.0998  142.7996  155.6142 C.3     1  UNL1        0.0730
     16 C         148.4848  142.2417  155.4705 C.3     1  UNL1        0.0185
     17 C         147.8777  143.0389  154.3542 C.3     1  UNL1        0.0017
     18 C         148.6557  143.2783  153.0943 C.3     1  UNL1        0.0006
     19 C         147.2708  143.8361  153.2380 C.3     1  UNL1        0.0017
     20 C         146.4928  143.5968  154.4980 C.3     1  UNL1        0.0185
     21 C         149.4976  142.7055  153.5053 C.3     1  UNL1        0.0102
     22 C         150.6477  141.9232  154.0668 C.3     1  UNL1        0.0687
     23 C         150.0407  142.7204  152.9506 C.3     1  UNL1        0.0086
     24 C         149.8697  141.6838  155.3267 C.3     1  UNL1        0.0102
     25 C         152.0326  141.3653  153.9231 C.2     1  UNL1        0.2184
     26 N         152.2270  139.9456  153.4793 N.am    1  UNL1       -0.3288
     27 O         153.2232  142.2270  154.2231 O.2     1  UNL1       -0.2754
     28 H         151.4456  139.3801  153.2824 H       1  UNL1        0.1449
     29 H         153.1360  139.5795  153.3849 H       1  UNL1        0.1449
     30 C         140.6254  140.0336  164.4845 C.ar    1  UNL1        0.0675
     31 C         141.9696  139.3941  164.3000 C.ar    1  UNL1        0.0190
     32 C         142.7475  139.6334  163.0401 C.ar    1  UNL1        0.0359
     33 C         142.1813  140.5123  161.9645 C.ar    1  UNL1        0.1356
     34 N         140.8370  141.1520  162.1489 N.ar    1  UNL1       -0.2276
     35 C         140.0591  140.9126  163.4089 C.ar    1  UNL1        0.1147
     36 N         138.2915  139.3156  168.2643 N.3     1  UNL1       -0.2723
     37 C         139.5632  140.1100  168.3076 C.3     1  UNL1        0.0937
     38 C         140.3412  140.3494  167.0476 C.3     1  UNL1        0.1082
     39 N         139.8474  139.7943  165.7444 N.pl3   1  UNL1       -0.3034
     40 C         138.5758  138.9999  165.7012 C.3     1  UNL1        0.1082
     41 C         137.7978  138.7606  166.9612 C.3     1  UNL1        0.0937
     42 C         138.3498  140.0988  170.2349 C.3     1  UNL1        0.0160
     43 C         137.5135  139.0763  169.5243 C.3     1  UNL1        0.0456
     44 C         136.6773  138.0537  168.8137 C.3     1  UNL1        0.0160
     45 C         136.7356  138.8369  170.7842 C.3     1  UNL1        0.0160
@<TRIPOS>BOND
     1    42    43    1
     2    43    44    1
     3    43    45    1
     4    43    36    1
     5    36    37    1
     6    37    38    1
     7    38    39    1
     8    39    30    1
     9    30    31   ar
    10    31    32   ar
    11    32    33   ar
    12    33     1    1
    13     1     2    1
    14     2     3    1
    15     3     4    1
    16     4     5   am
    17     5     6    2
    18     5     7   am
    19    15     7    1
    20    15    16    1
    21    16    17    1
    22    17    18    1
    23    18    19    1
    24    19    20    1
    25    20    21    1
    26    21    22    1
    27    22    25    1
    28    25    26   am
    29    25    27    2
    30    22    23    1
    31    22    24    1
    32     4     8    1
    33     8     9   ar
    34     9    10   ar
    35    10    11   ar
    36    11    12   ar
    37    12    13   ar
    38    33    34   ar
    39    34    35   ar
    40    39    40    1
    41    40    41    1
    42    41    36    1
    43    35    30   ar
    44    13     1    1
    45    20    15    1
    46    13     8   ar
    47    24    16    1
    48    23    18    1
    49     7    14    1
    50    26    28    1
    51    26    29    1
@<TRIPOS>MOLECULE
*****
 45 51 0 0 0
SMALL
GASTEIGER

@<TRIPOS>ATOM
      1 N         140.7864  139.8379  154.7936 N.pl3   1  UNL1       -0.2696
      2 C         141.8364  140.9088  154.7739 C.3     1  UNL1        0.1189
      3 C         141.4347  142.3516  154.6903 C.3     1  UNL1        0.1216
      4 N         139.9830  142.7234  154.6263 N.am    1  UNL1       -0.2403
      5 C         139.5812  144.1662  154.5427 C.2     1  UNL1        0.3078
      6 O         138.1294  144.5380  154.4787 O.2     1  UNL1       -0.2522
      7 N         140.6313  145.2372  154.5231 N.am    1  UNL1       -0.2901
      8 C         138.9328  141.6524  154.6460 C.ar    1  UNL1        0.0689
      9 C         137.4811  142.0243  154.5820 C.ar    1  UNL1        0.0162
     10 C         136.4311  140.9533  154.6016 C.ar    1  UNL1        0.0014
     11 C         136.8328  139.5105  154.6853 C.ar    1  UNL1        0.0014
     12 C         138.2845  139.1387  154.7492 C.ar    1  UNL1        0.0161
     13 C         139.3346  140.2097  154.7296 C.ar    1  UNL1        0.0666
     14 H         141.5841  144.9932  154.5650 H       1  UNL1        0.1509
     15 C         140.2295  146.6800  154.4394 C.3     1  UNL1        0.0730
     16 C         139.6536  147.3690  155.6410 C.3     1  UNL1        0.0185
     17 C         139.8278  148.1228  154.3558 C.3     1  UNL1        0.0017
     18 C         139.4261  149.5655  154.2722 C.3     1  UNL1        0.0006
     19 C         140.0020  148.8765  153.0707 C.3     1  UNL1        0.0017
     20 C         140.4037  147.4337  153.1544 C.3     1  UNL1        0.0185
     21 C         139.1090  149.5382  155.3232 C.3     1  UNL1        0.0102
     22 C         138.6759  149.5008  156.7588 C.3     1  UNL1        0.0687
     23 C         138.8501  150.2546  155.4737 C.3     1  UNL1        0.0086
     24 C         139.0777  148.0580  156.8424 C.3     1  UNL1        0.0102
     25 C         138.1000  150.1898  157.9602 C.2     1  UNL1        0.2184
     26 N         138.5134  151.5937  158.2897 N.am    1  UNL1       -0.3288
     27 O         137.1107  149.4751  158.8323 O.2     1  UNL1       -0.2754
     28 H         139.1626  152.0628  157.7173 H       1  UNL1        0.1449
     29 H         138.1353  152.0459  159.0782 H       1  UNL1        0.1449
     30 C         141.9916  135.5095  155.0444 C.ar    1  UNL1        0.0675
     31 C         141.8493  136.1721  153.7063 C.ar    1  UNL1        0.0190
     32 C         141.4476  137.6149  153.6227 C.ar    1  UNL1        0.0359
     33 C         141.1881  138.3951  154.8772 C.ar    1  UNL1        0.1356
     34 N         141.3304  137.7325  156.2155 N.ar    1  UNL1       -0.2276
     35 C         141.7321  136.2897  156.2991 C.ar    1  UNL1        0.1147
     36 N         143.1967  131.1812  155.2953 N.3     1  UNL1       -0.2723
     37 C         142.9900  131.8257  153.9567 C.3     1  UNL1        0.0937
     38 C         142.5883  133.2685  153.8731 C.3     1  UNL1        0.1082
     39 N         142.3933  134.0667  155.1281 N.pl3   1  UNL1       -0.3034
     40 C         142.6000  133.4221  156.4666 C.3     1  UNL1        0.1082
     41 C         143.0017  131.9793  156.5502 C.3     1  UNL1        0.0937
     42 C         144.0755  129.7888  153.9577 C.3     1  UNL1        0.0160
     43 C         143.5984  129.7384  155.3789 C.3     1  UNL1        0.0456
     44 C         143.1214  129.6879  156.8002 C.3     1  UNL1        0.0160
     45 C         144.0002  128.2956  155.4626 C.3     1  UNL1        0.0160
@<TRIPOS>BOND
     1    42    43    1
     2    43    44    1
     3    43    45    1
     4    43    36    1
     5    36    37    1
     6    37    38    1
     7    38    39    1
     8    39    30    1
     9    30    31   ar
    10    31    32   ar
    11    32    33   ar
    12    33     1    1
    13     1     2    1
    14     2     3    1
    15     3     4    1
    16     4     5   am
    17     5     6    2
    18     5     7   am
    19    15     7    1
    20    15    16    1
    21    16    17    1
    22    17    18    1
    23    18    19    1
    24    19    20    1
    25    20    21    1
    26    21    22    1
    27    22    25    1
    28    25    26   am
    29    25    27    2
    30    22    23    1
    31    22    24    1
    32     4     8    1
    33     8     9   ar
    34     9    10   ar
    35    10    11   ar
    36    11    12   ar
    37    12    13   ar
    38    33    34   ar
    39    34    35   ar
    40    39    40    1
    41    40    41    1
    42    41    36    1
    43    35    30   ar
    44    13     1    1
    45    20    15    1
    46    13     8   ar
    47    24    16    1
    48    23    18    1
    49     7    14    1
    50    26    28    1
    51    26    29    1
@<TRIPOS>MOLECULE
*****
 45 51 0 0 0
SMALL
GASTEIGER

@<TRIPOS>ATOM
      1 N         142.5024  137.1654  156.8620 N.pl3   1  UNL1       -0.2696
      2 C         141.4310  137.3264  157.8994 C.3     1  UNL1        0.1189
      3 C         141.1757  138.6719  158.5113 C.3     1  UNL1        0.1216
      4 N         141.9917  139.8564  158.0857 N.am    1  UNL1       -0.2403
      5 C         141.7363  141.2019  158.6976 C.2     1  UNL1        0.3078
      6 O         142.5524  142.3865  158.2720 O.2     1  UNL1       -0.2522
      7 N         140.6650  141.3630  159.7350 N.am    1  UNL1       -0.2901
      8 C         143.0631  139.6954  157.0482 C.ar    1  UNL1        0.0689
      9 C         143.8790  140.8799  156.6227 C.ar    1  UNL1        0.0162
     10 C         144.9503  140.7189  155.5853 C.ar    1  UNL1        0.0014
     11 C         145.2057  139.3734  154.9734 C.ar    1  UNL1        0.0014
     12 C         144.3897  138.1889  155.3989 C.ar    1  UNL1        0.0161
     13 C         143.3184  138.3499  156.4364 C.ar    1  UNL1        0.0666
     14 H         140.1294  140.5855  160.0144 H       1  UNL1        0.1509
     15 C         140.4097  142.7085  160.3469 C.3     1  UNL1        0.0730
     16 C         140.1229  142.8226  161.8149 C.3     1  UNL1        0.0185
     17 C         140.1543  144.0540  160.9588 C.3     1  UNL1        0.0017
     18 C         139.8990  145.3995  161.5707 C.3     1  UNL1        0.0006
     19 C         140.1857  145.2853  160.1028 C.3     1  UNL1        0.0017
     20 C         140.4411  143.9398  159.4909 C.3     1  UNL1        0.0185
     21 C         139.7645  144.9273  162.5529 C.3     1  UNL1        0.0102
     22 C         139.5808  144.2823  163.8946 C.3     1  UNL1        0.0687
     23 C         139.6122  145.5136  163.0386 C.3     1  UNL1        0.0086
     24 C         139.8362  142.9368  163.2827 C.3     1  UNL1        0.0102
     25 C         139.2941  144.3964  165.3625 C.2     1  UNL1        0.2184
     26 N         139.9525  143.4586  166.3305 N.am    1  UNL1       -0.3288
     27 O         138.3489  145.4485  165.8625 O.2     1  UNL1       -0.2754
     28 H         140.5728  142.7681  166.0024 H       1  UNL1        0.1449
     29 H         139.7643  143.5335  167.2939 H       1  UNL1        0.1449
     30 C         143.2684  133.1289  155.0263 C.ar    1  UNL1        0.0675
     31 C         142.6048  134.2057  154.2201 C.ar    1  UNL1        0.0190
     32 C         142.3494  135.5512  154.8320 C.ar    1  UNL1        0.0359
     33 C         142.7577  135.8199  156.2501 C.ar    1  UNL1        0.1356
     34 N         143.4214  134.7431  157.0564 N.ar    1  UNL1       -0.2276
     35 C         143.6767  133.3975  156.4445 C.ar    1  UNL1        0.1147
     36 N         144.0344  129.0923  153.1907 N.3     1  UNL1       -0.2723
     37 C         143.1687  130.0885  152.4776 C.3     1  UNL1        0.0937
     38 C         142.9134  131.4340  153.0894 C.3     1  UNL1        0.1082
     39 N         143.5237  131.7834  154.4144 N.pl3   1  UNL1       -0.3034
     40 C         144.3894  130.7873  155.1274 C.3     1  UNL1        0.1082
     41 C         144.6447  129.4418  154.5156 C.3     1  UNL1        0.0937
     42 C         145.7646  127.9376  152.7747 C.3     1  UNL1        0.0160
     43 C         144.2898  127.7468  152.5788 C.3     1  UNL1        0.0456
     44 C         142.8149  127.5561  152.3828 C.3     1  UNL1        0.0160
     45 C         144.5451  126.4013  151.9669 C.3     1  UNL1        0.0160
@<TRIPOS>BOND
     1    42    43    1
     2    43    44    1
     3    43    45    1
     4    43    36    1
     5    36    37    1
     6    37    38    1
     7    38    39    1
     8    39    30    1
     9    30    31   ar
    10    31    32   ar
    11    32    33   ar
    12    33     1    1
    13     1     2    1
    14     2     3    1
    15     3     4    1
    16     4     5   am
    17     5     6    2
    18     5     7   am
    19    15     7    1
    20    15    16    1
    21    16    17    1
    22    17    18    1
    23    18    19    1
    24    19    20    1
    25    20    21    1
    26    21    22    1
    27    22    25    1
    28    25    26   am
    29    25    27    2
    30    22    23    1
    31    22    24    1
    32     4     8    1
    33     8     9   ar
    34     9    10   ar
    35    10    11   ar
    36    11    12   ar
    37    12    13   ar
    38    33    34   ar
    39    34    35   ar
    40    39    40    1
    41    40    41    1
    42    41    36    1
    43    35    30   ar
    44    13     1    1
    45    20    15    1
    46    13     8   ar
    47    24    16    1
    48    23    18    1
    49     7    14    1
    50    26    28    1
    51    26    29    1
