@<TRIPOS>MOLECULE
*****
 22 24 0 0 0
SMALL
GASTEIGER

@<TRIPOS>ATOM
      1 C         140.4725  141.7475  167.3829 C.3     1  UNL1        0.1535
      2 C         139.9243  140.4228  167.8241 C.3     1  UNL1        0.1823
      3 C         139.4519  140.2392  169.2359 C.3     1  UNL1        0.0602
      4 C         139.5948  141.4798  170.0844 C.3     1  UNL1        0.0612
      5 C         139.8488  142.8342  170.6769 C.3     1  UNL1        0.0175
      6 C         140.4380  143.7049  169.6071 C.3     1  UNL1        0.0180
      7 C         140.5481  142.8887  168.3534 C.3     1  UNL1        0.0716
      8 N         140.0270  141.5134  168.6484 N.3     1  UNL1       -0.2733
      9 C         139.9122  140.8130  168.2855 C.3     1  UNL1        0.0896
     10 C         140.9449  141.9310  165.9711 C.2     1  UNL1        0.3215
     11 O         140.1429  142.7620  165.0139 O.2     1  UNL1       -0.2499
     12 C         142.1845  140.2193  164.4600 C.3     1  UNL1        0.2556
     13 O         142.2194  141.2835  165.5165 O.3     1  UNL1       -0.4443
     14 O         139.8487  139.2816  166.8536 O.3     1  UNL1       -0.4485
     15 C         138.5552  138.9711  166.1604 C.2     1  UNL1        0.3411
     16 O         137.3512  138.5739  166.9622 O.2     1  UNL1       -0.2449
     17 C         138.4657  139.0576  164.6656 C.ar    1  UNL1        0.0756
     18 C         137.9538  140.3091  164.0161 C.ar    1  UNL1        0.0064
     19 C         137.8642  140.3956  162.5213 C.ar    1  UNL1        0.0002
     20 C         138.2865  139.2307  161.6760 C.ar    1  UNL1        0.0000
     21 C         138.7984  137.9792  162.3255 C.ar    1  UNL1        0.0002
     22 C         138.8880  137.8927  163.8203 C.ar    1  UNL1        0.0064
@<TRIPOS>BOND
     1    12    13    1
     2    13    10    1
     3    10    11    2
     4    10     1    1
     5     1     2    1
     6     2    14    1
     7    14    15    1
     8    15    16    2
     9    15    17    1
    10    17    18   ar
    11    18    19   ar
    12    19    20   ar
    13    20    21   ar
    14    21    22   ar
    15     2     3    1
    16     3     4    1
    17     4     5    1
    18     5     6    1
    19     6     7    1
    20     7     8    1
    21     8     9    1
    22     7     1    1
    23    22    17   ar
    24     8     4    1
@<TRIPOS>MOLECULE
*****
 22 24 0 0 0
SMALL
GASTEIGER

@<TRIPOS>ATOM
      1 C         140.3800  143.9806  163.0372 C.3     1  UNL1        0.1535
      2 C         139.8814  143.1447  164.1786 C.3     1  UNL1        0.1823
      3 C         140.8353  142.6738  165.2361 C.3     1  UNL1        0.0602
      4 C         142.2579  143.1249  165.0074 C.3     1  UNL1        0.0612
      5 C         143.5580  143.7052  164.5354 C.3     1  UNL1        0.0175
      6 C         143.2951  144.4596  163.2659 C.3     1  UNL1        0.0180
      7 C         141.8324  144.3456  162.9533 C.3     1  UNL1        0.0716
      8 N         141.1914  143.5207  164.0297 N.3     1  UNL1       -0.2733
      9 C         140.4762  143.2354  164.2362 C.3     1  UNL1        0.0896
     10 C         139.4260  144.4514  161.9797 C.2     1  UNL1        0.3215
     11 O         138.6557  145.7233  162.1771 O.2     1  UNL1       -0.2499
     12 C         140.0121  142.3780  160.5279 C.3     1  UNL1        0.2556
     13 O         139.2423  143.6503  160.7249 O.3     1  UNL1       -0.4443
     14 O         138.4290  142.7797  164.2625 O.3     1  UNL1       -0.4485
     15 C         137.9258  141.5429  163.5790 C.2     1  UNL1        0.3411
     16 O         137.0946  141.6587  162.3356 O.2     1  UNL1       -0.2449
     17 C         138.2536  140.1904  164.1387 C.ar    1  UNL1        0.0756
     18 C         138.7328  139.0983  163.2290 C.ar    1  UNL1        0.0064
     19 C         139.0606  137.7458  163.7887 C.ar    1  UNL1        0.0002
     20 C         138.9093  137.4855  165.2581 C.ar    1  UNL1        0.0000
     21 C         138.4302  138.5776  166.1679 C.ar    1  UNL1        0.0002
     22 C         138.1023  139.9301  165.6081 C.ar    1  UNL1        0.0064
@<TRIPOS>BOND
     1    12    13    1
     2    13    10    1
     3    10    11    2
     4    10     1    1
     5     1     2    1
     6     2    14    1
     7    14    15    1
     8    15    16    2
     9    15    17    1
    10    17    18   ar
    11    18    19   ar
    12    19    20   ar
    13    20    21   ar
    14    21    22   ar
    15     2     3    1
    16     3     4    1
    17     4     5    1
    18     5     6    1
    19     6     7    1
    20     7     8    1
    21     8     9    1
    22     7     1    1
    23    22    17   ar
    24     8     4    1
@<TRIPOS>MOLECULE
*****
 22 24 0 0 0
SMALL
GASTEIGER

@<TRIPOS>ATOM
      1 C         139.0658  140.2395  165.2715 C.3     1  UNL1        0.1535
      2 C         140.5225  140.5476  165.4531 C.3     1  UNL1        0.1823
      3 C         141.0635  141.8845  165.0408 C.3     1  UNL1        0.0602
      4 C         140.0162  142.8051  164.4619 C.3     1  UNL1        0.0612
      5 C         138.7888  143.4901  163.9382 C.3     1  UNL1        0.0175
      6 C         137.6355  142.5404  164.0714 C.3     1  UNL1        0.0180
      7 C         138.1500  141.2684  164.6775 C.3     1  UNL1        0.0716
      8 N         139.6213  141.4320  164.9189 N.3     1  UNL1       -0.2733
      9 C         140.2419  141.0235  165.2080 C.3     1  UNL1        0.0896
     10 C         138.5248  138.9027  165.6838 C.2     1  UNL1        0.3215
     11 O         137.6403  138.7911  166.8902 O.2     1  UNL1       -0.2499
     12 C         138.9543  137.7525  163.3941 C.3     1  UNL1        0.2556
     13 O         138.8682  137.6772  164.8897 O.3     1  UNL1       -0.4443
     14 O         141.4382  139.5188  166.0471 O.3     1  UNL1       -0.4485
     15 C         141.9399  139.6825  167.4512 C.2     1  UNL1        0.3411
     16 O         143.1462  138.9181  167.9104 O.2     1  UNL1       -0.2449
     17 C         141.2356  140.6104  168.3960 C.ar    1  UNL1        0.0756
     18 C         141.7825  141.9848  168.6446 C.ar    1  UNL1        0.0064
     19 C         141.0781  142.9128  169.5895 C.ar    1  UNL1        0.0002
     20 C         139.8268  142.4662  170.2858 C.ar    1  UNL1        0.0000
     21 C         139.2799  141.0918  170.0372 C.ar    1  UNL1        0.0002
     22 C         139.9843  140.1638  169.0923 C.ar    1  UNL1        0.0064
@<TRIPOS>BOND
     1    12    13    1
     2    13    10    1
     3    10    11    2
     4    10     1    1
     5     1     2    1
     6     2    14    1
     7    14    15    1
     8    15    16    2
     9    15    17    1
    10    17    18   ar
    11    18    19   ar
    12    19    20   ar
    13    20    21   ar
    14    21    22   ar
    15     2     3    1
    16     3     4    1
    17     4     5    1
    18     5     6    1
    19     6     7    1
    20     7     8    1
    21     8     9    1
    22     7     1    1
    23    22    17   ar
    24     8     4    1
@<TRIPOS>MOLECULE
*****
 22 24 0 0 0
SMALL
GASTEIGER

@<TRIPOS>ATOM
      1 C         140.7339  143.9249  162.8423 C.3     1  UNL1        0.1535
      2 C         140.6918  142.4439  162.6077 C.3     1  UNL1        0.1823
      3 C         141.8631  141.5899  162.9932 C.3     1  UNL1        0.0602
      4 C         143.0022  142.3706  163.6034 C.3     1  UNL1        0.0612
      5 C         143.9548  143.3833  164.1662 C.3     1  UNL1        0.0175
      6 C         143.3028  144.7314  164.0791 C.3     1  UNL1        0.0180
      7 C         141.9473  144.5518  163.4624 C.3     1  UNL1        0.0716
      8 N         141.7615  143.0927  163.1684 N.3     1  UNL1       -0.2733
      9 C         141.2196  142.5961  162.8599 C.3     1  UNL1        0.0896
     10 C         139.5626  144.7789  162.4568 C.2     1  UNL1        0.3215
     11 O         139.5408  145.4641  161.1226 O.2     1  UNL1       -0.2499
     12 C         138.6066  144.6940  164.8712 C.3     1  UNL1        0.2556
     13 O         138.4129  144.9478  163.4055 O.3     1  UNL1       -0.4443
     14 O         139.4783  141.8171  161.9876 O.3     1  UNL1       -0.4485
     15 C         138.3500  141.3467  162.8569 C.2     1  UNL1        0.3411
     16 O         137.0660  142.1209  162.9032 O.2     1  UNL1       -0.2449
     17 C         138.5055  140.1023  163.6798 C.ar    1  UNL1        0.0756
     18 C         138.1897  140.1283  165.1460 C.ar    1  UNL1        0.0064
     19 C         138.3452  138.8839  165.9689 C.ar    1  UNL1        0.0002
     20 C         138.8165  137.6135  165.3257 C.ar    1  UNL1        0.0000
     21 C         139.1323  137.5874  163.8595 C.ar    1  UNL1        0.0002
     22 C         138.9768  138.8319  163.0366 C.ar    1  UNL1        0.0064
@<TRIPOS>BOND
     1    12    13    1
     2    13    10    1
     3    10    11    2
     4    10     1    1
     5     1     2    1
     6     2    14    1
     7    14    15    1
     8    15    16    2
     9    15    17    1
    10    17    18   ar
    11    18    19   ar
    12    19    20   ar
    13    20    21   ar
    14    21    22   ar
    15     2     3    1
    16     3     4    1
    17     4     5    1
    18     5     6    1
    19     6     7    1
    20     7     8    1
    21     8     9    1
    22     7     1    1
    23    22    17   ar
    24     8     4    1
@<TRIPOS>MOLECULE
*****
 22 24 0 0 0
SMALL
GASTEIGER

@<TRIPOS>ATOM
      1 C         140.3511  140.8706  166.5901 C.3     1  UNL1        0.1535
      2 C         141.8467  140.7556  166.5895 C.3     1  UNL1        0.1823
      3 C         142.6798  141.8101  165.9234 C.3     1  UNL1        0.0602
      4 C         141.8640  142.9180  165.3017 C.3     1  UNL1        0.0612
      5 C         140.8185  143.8628  164.7876 C.3     1  UNL1        0.0175
      6 C         139.4741  143.3203  165.1725 C.3     1  UNL1        0.0180
      7 C         139.6886  142.0403  165.9245 C.3     1  UNL1        0.0716
      8 N         141.1657  141.7916  166.0043 N.3     1  UNL1       -0.2733
      9 C         141.6802  141.2582  166.2981 C.3     1  UNL1        0.0896
     10 C         139.5180  139.8161  167.2563 C.2     1  UNL1        0.3215
     11 O         138.7187  138.8561  166.4258 O.2     1  UNL1       -0.2499
     12 C         139.6323  140.9599  169.5863 C.3     1  UNL1        0.2556
     13 O         139.4841  139.7215  168.7530 O.3     1  UNL1       -0.4443
     14 O         142.5091  139.5859  167.2551 O.3     1  UNL1       -0.4485
     15 C         143.1582  138.5189  166.4244 C.2     1  UNL1        0.3411
     16 O         144.2812  137.7040  166.9944 O.2     1  UNL1       -0.2449
     17 C         142.6844  138.2668  165.0237 C.ar    1  UNL1        0.0756
     18 C         143.4620  138.8069  163.8602 C.ar    1  UNL1        0.0064
     19 C         142.9882  138.5548  162.4595 C.ar    1  UNL1        0.0002
     20 C         141.7368  137.7624  162.2223 C.ar    1  UNL1        0.0000
     21 C         140.9592  137.2223  163.3858 C.ar    1  UNL1        0.0002
     22 C         141.4330  137.4744  164.7865 C.ar    1  UNL1        0.0064
@<TRIPOS>BOND
     1    12    13    1
     2    13    10    1
     3    10    11    2
     4    10     1    1
     5     1     2    1
     6     2    14    1
     7    14    15    1
     8    15    16    2
     9    15    17    1
    10    17    18   ar
    11    18    19   ar
    12    19    20   ar
    13    20    21   ar
    14    21    22   ar
    15     2     3    1
    16     3     4    1
    17     4     5    1
    18     5     6    1
    19     6     7    1
    20     7     8    1
    21     8     9    1
    22     7     1    1
    23    22    17   ar
    24     8     4    1
@<TRIPOS>MOLECULE
*****
 22 24 0 0 0
SMALL
GASTEIGER

@<TRIPOS>ATOM
      1 C         138.9924  140.7285  165.6125 C.3     1  UNL1        0.1535
      2 C         140.1759  140.9224  166.5134 C.3     1  UNL1        0.1823
      3 C         140.7673  142.2893  166.6910 C.3     1  UNL1        0.0602
      4 C         140.0584  143.3597  165.8966 C.3     1  UNL1        0.0612
      5 C         139.1786  144.1970  165.0163 C.3     1  UNL1        0.0175
      6 C         138.1539  143.2958  164.3936 C.3     1  UNL1        0.0180
      7 C         138.4003  141.9016  164.8891 C.3     1  UNL1        0.0716
      8 N         139.5773  141.9411  165.8180 N.3     1  UNL1       -0.2733
      9 C         140.0144  141.4520  166.2711 C.3     1  UNL1        0.0896
     10 C         138.4009  139.3615  165.4349 C.2     1  UNL1        0.3215
     11 O         137.4723  138.8054  166.4734 O.2     1  UNL1       -0.2499
     12 C         138.2582  138.9906  162.8673 C.3     1  UNL1        0.2556
     13 O         138.7380  138.5506  164.2187 O.3     1  UNL1       -0.4443
     14 O         140.7679  139.7493  167.2367 O.3     1  UNL1       -0.4485
     15 C         142.1893  139.3469  166.9762 C.2     1  UNL1        0.3411
     16 O         143.1300  139.1309  168.1244 O.2     1  UNL1       -0.2449
     17 C         142.6699  139.1606  165.5675 C.ar    1  UNL1        0.0756
     18 C         143.8687  139.9176  165.0778 C.ar    1  UNL1        0.0064
     19 C         144.3494  139.7313  163.6692 C.ar    1  UNL1        0.0002
     20 C         143.6313  138.7880  162.7503 C.ar    1  UNL1        0.0000
     21 C         142.4325  138.0310  163.2400 C.ar    1  UNL1        0.0002
     22 C         141.9518  138.2173  164.6486 C.ar    1  UNL1        0.0064
@<TRIPOS>BOND
     1    12    13    1
     2    13    10    1
     3    10    11    2
     4    10     1    1
     5     1     2    1
     6     2    14    1
     7    14    15    1
     8    15    16    2
     9    15    17    1
    10    17    18   ar
    11    18    19   ar
    12    19    20   ar
    13    20    21   ar
    14    21    22   ar
    15     2     3    1
    16     3     4    1
    17     4     5    1
    18     5     6    1
    19     6     7    1
    20     7     8    1
    21     8     9    1
    22     7     1    1
    23    22    17   ar
    24     8     4    1
@<TRIPOS>MOLECULE
*****
 22 24 0 0 0
SMALL
GASTEIGER

@<TRIPOS>ATOM
      1 C         141.6893  142.6760  165.4878 C.3     1  UNL1        0.1535
      2 C         140.4306  143.3245  164.9926 C.3     1  UNL1        0.1823
      3 C         140.5078  144.5001  164.0642 C.3     1  UNL1        0.0602
      4 C         141.9214  144.9072  163.7248 C.3     1  UNL1        0.0612
      5 C         143.4027  145.0832  163.5668 C.3     1  UNL1        0.0175
      6 C         144.0848  144.0301  164.3887 C.3     1  UNL1        0.0180
      7 C         143.0252  143.2032  165.0547 C.3     1  UNL1        0.0716
      8 N         141.6881  143.7453  164.6443 N.3     1  UNL1       -0.2733
      9 C         140.9115  143.6089  164.7620 C.3     1  UNL1        0.0896
     10 C         141.6122  141.5004  166.4163 C.2     1  UNL1        0.3215
     11 O         141.7062  140.1064  165.8706 O.2     1  UNL1       -0.2499
     12 C         140.1929  141.2503  168.5780 C.3     1  UNL1        0.2556
     13 O         141.4410  141.7188  167.8904 O.3     1  UNL1       -0.4443
     14 O         139.0949  142.7973  165.4257 O.3     1  UNL1       -0.4485
     15 C         138.3373  141.8542  164.5388 C.2     1  UNL1        0.3411
     16 O         137.4265  142.3930  163.4756 O.2     1  UNL1       -0.2449
     17 C         138.4903  140.3725  164.7150 C.ar    1  UNL1        0.0756
     18 C         139.0373  139.5367  163.5959 C.ar    1  UNL1        0.0064
     19 C         139.1904  138.0549  163.7721 C.ar    1  UNL1        0.0002
     20 C         138.7965  137.4090  165.0673 C.ar    1  UNL1        0.0000
     21 C         138.2495  138.2448  166.1863 C.ar    1  UNL1        0.0002
     22 C         138.0964  139.7265  166.0102 C.ar    1  UNL1        0.0064
@<TRIPOS>BOND
     1    12    13    1
     2    13    10    1
     3    10    11    2
     4    10     1    1
     5     1     2    1
     6     2    14    1
     7    14    15    1
     8    15    16    2
     9    15    17    1
    10    17    18   ar
    11    18    19   ar
    12    19    20   ar
    13    20    21   ar
    14    21    22   ar
    15     2     3    1
    16     3     4    1
    17     4     5    1
    18     5     6    1
    19     6     7    1
    20     7     8    1
    21     8     9    1
    22     7     1    1
    23    22    17   ar
    24     8     4    1
@<TRIPOS>MOLECULE
*****
 22 24 0 0 0
SMALL
GASTEIGER

@<TRIPOS>ATOM
      1 C         140.3987  140.3166  167.4607 C.3     1  UNL1        0.1535
      2 C         141.4825  140.0762  166.4519 C.3     1  UNL1        0.1823
      3 C         141.2515  139.1253  165.3151 C.3     1  UNL1        0.0602
      4 C         139.8805  138.4932  165.3283 C.3     1  UNL1        0.0612
      5 C         138.4779  138.0300  165.5892 C.3     1  UNL1        0.0175
      6 C         137.9856  138.7178  166.8280 C.3     1  UNL1        0.0180
      7 C         139.0839  139.6061  167.3326 C.3     1  UNL1        0.0716
      8 N         140.2550  139.4673  166.4057 N.3     1  UNL1       -0.2733
      9 C         140.9964  139.7453  166.3125 C.3     1  UNL1        0.0896
     10 C         140.6297  141.2675  168.5975 C.2     1  UNL1        0.3215
     11 O         141.0743  140.7470  169.9322 O.2     1  UNL1       -0.2499
     12 C         140.4418  143.6658  169.5789 C.3     1  UNL1        0.2556
     13 O         140.4160  142.7391  168.3997 O.3     1  UNL1       -0.4443
     14 O         142.7972  140.7868  166.5801 O.3     1  UNL1       -0.4485
     15 C         143.4556  141.3710  165.3655 C.2     1  UNL1        0.3411
     16 O         144.5424  140.6120  164.6634 O.2     1  UNL1       -0.2449
     17 C         143.0273  142.7141  164.8530 C.ar    1  UNL1        0.0756
     18 C         144.0580  143.7330  164.4666 C.ar    1  UNL1        0.0064
     19 C         143.6297  145.0761  163.9541 C.ar    1  UNL1        0.0002
     20 C         142.1706  145.4002  163.8280 C.ar    1  UNL1        0.0000
     21 C         141.1398  144.3812  164.2143 C.ar    1  UNL1        0.0002
     22 C         141.5682  143.0382  164.7269 C.ar    1  UNL1        0.0064
@<TRIPOS>BOND
     1    12    13    1
     2    13    10    1
     3    10    11    2
     4    10     1    1
     5     1     2    1
     6     2    14    1
     7    14    15    1
     8    15    16    2
     9    15    17    1
    10    17    18   ar
    11    18    19   ar
    12    19    20   ar
    13    20    21   ar
    14    21    22   ar
    15     2     3    1
    16     3     4    1
    17     4     5    1
    18     5     6    1
    19     6     7    1
    20     7     8    1
    21     8     9    1
    22     7     1    1
    23    22    17   ar
    24     8     4    1
@<TRIPOS>MOLECULE
*****
 22 24 0 0 0
SMALL
GASTEIGER

@<TRIPOS>ATOM
      1 C         140.5814  142.2957  166.8346 C.3     1  UNL1        0.1535
      2 C         140.1295  140.8999  166.5224 C.3     1  UNL1        0.1823
      3 C         139.0493  140.6707  165.5072 C.3     1  UNL1        0.0602
      4 C         138.5219  141.9444  164.8916 C.3     1  UNL1        0.0612
      5 C         138.1977  143.3438  164.4598 C.3     1  UNL1        0.0175
      6 C         139.0823  144.2820  165.2262 C.3     1  UNL1        0.0180
      7 C         139.9532  143.4624  166.1317 C.3     1  UNL1        0.0716
      8 N         139.6068  142.0176  165.9248 N.3     1  UNL1       -0.2733
      9 C         139.8171  141.2954  166.1888 C.3     1  UNL1        0.0896
     10 C         141.6616  142.5249  167.8499 C.2     1  UNL1        0.3215
     11 O         141.3014  142.9063  169.2551 O.2     1  UNL1       -0.2499
     12 C         143.5072  142.5015  166.0214 C.3     1  UNL1        0.2556
     13 O         143.1020  142.3726  167.4599 O.3     1  UNL1       -0.4443
     14 O         140.7578  139.7333  167.2254 O.3     1  UNL1       -0.4485
     15 C         142.0098  139.1138  166.6788 C.2     1  UNL1        0.3411
     16 O         143.2161  138.9608  167.5572 O.2     1  UNL1       -0.2449
     17 C         142.0555  138.6473  165.2539 C.ar    1  UNL1        0.0756
     18 C         143.1247  139.1552  164.3324 C.ar    1  UNL1        0.0064
     19 C         143.1704  138.6887  162.9075 C.ar    1  UNL1        0.0002
     20 C         142.1471  137.7144  162.4042 C.ar    1  UNL1        0.0000
     21 C         141.0780  137.2065  163.3256 C.ar    1  UNL1        0.0002
     22 C         141.0322  137.6730  164.7505 C.ar    1  UNL1        0.0064
@<TRIPOS>BOND
     1    12    13    1
     2    13    10    1
     3    10    11    2
     4    10     1    1
     5     1     2    1
     6     2    14    1
     7    14    15    1
     8    15    16    2
     9    15    17    1
    10    17    18   ar
    11    18    19   ar
    12    19    20   ar
    13    20    21   ar
    14    21    22   ar
    15     2     3    1
    16     3     4    1
    17     4     5    1
    18     5     6    1
    19     6     7    1
    20     7     8    1
    21     8     9    1
    22     7     1    1
    23    22    17   ar
    24     8     4    1
