@<TRIPOS>MOLECULE
*****
 26 28 0 0 0
SMALL
GASTEIGER

@<TRIPOS>ATOM
      1 C         140.8714  144.6354  163.4882 C.3     1  UNL1        0.0716
      2 C         141.9042  143.6422  163.9321 C.3     1  UNL1        0.0199
      3 C         141.6857  142.8402  165.1807 C.3     1  UNL1        0.0060
      4 C         140.4344  143.0315  165.9855 C.3     1  UNL1        0.0224
      5 C         139.4016  144.0246  165.5417 C.3     1  UNL1        0.0060
      6 C         139.6201  144.8266  164.2930 C.3     1  UNL1        0.0199
      7 C         140.2159  142.2295  167.2341 C.ar    1  UNL1       -0.0223
      8 C         140.4318  142.8601  168.5780 C.ar    1  UNL1       -0.0012
      9 C         140.2133  142.0582  169.8266 C.ar    1  UNL1        0.0363
     10 C         139.7788  140.6257  169.7315 C.ar    1  UNL1        0.1337
     11 O         139.5603  139.8237  170.9802 O.3     1  UNL1       -0.5055
     12 C         139.5629  139.9950  168.3878 C.ar    1  UNL1        0.0363
     13 C         139.7814  140.7970  167.1390 C.ar    1  UNL1       -0.0012
     14 H         139.6952  140.2177  171.8196 H       1  UNL1        0.2922
     15 O         139.2997  144.0111  161.0104 O.2     1  UNL1       -0.2751
     16 C         140.3041  145.1252  161.0007 C.2     1  UNL1        0.2228
     17 N         141.0899  145.4373  162.2396 N.am    1  UNL1       -0.3060
     18 H         141.7491  146.1685  162.2332 H       1  UNL1        0.1494
     19 C         140.5226  145.9271  159.7519 C.3     1  UNL1        0.0913
     20 C         140.8708  145.2351  158.4675 C.3     1  UNL1        0.0554
     21 C         139.9269  145.2955  157.3032 C.ar    1  UNL1        0.0595
     22 C         139.6506  146.6066  156.6289 C.ar    1  UNL1        0.0148
     23 C         138.7068  146.6670  155.4647 C.ar    1  UNL1        0.0028
     24 C         138.0392  145.4163  154.9748 C.ar    1  UNL1        0.0207
     25 C         138.3155  144.1052  155.6490 C.ar    1  UNL1        0.0984
     26 N         139.2593  144.0448  156.8133 N.ar    1  UNL1       -0.2481
@<TRIPOS>BOND
     1    15    16    2
     2    16    19    1
     3    19    20    1
     4    20    21    1
     5    21    22   ar
     6    22    23   ar
     7    23    24   ar
     8    24    25   ar
     9    25    26   ar
    10    16    17   am
    11     1    17    1
    12     1     2    1
    13     2     3    1
    14     3     4    1
    15     4     7    1
    16     7     8   ar
    17     8     9   ar
    18     9    10   ar
    19    10    11    1
    20    10    12   ar
    21    12    13   ar
    22     4     5    1
    23     5     6    1
    24    26    21   ar
    25     6     1    1
    26    13     7   ar
    27    17    18    1
    28    11    14    1
@<TRIPOS>MOLECULE
*****
 26 28 0 0 0
SMALL
GASTEIGER

@<TRIPOS>ATOM
      1 C         142.3565  140.1666  167.3368 C.3     1  UNL1        0.0716
      2 C         141.2291  139.8195  166.4102 C.3     1  UNL1        0.0199
      3 C         140.7083  140.8438  165.4460 C.3     1  UNL1        0.0060
      4 C         141.3148  142.2152  165.4085 C.3     1  UNL1        0.0224
      5 C         142.4421  142.5623  166.3351 C.3     1  UNL1        0.0060
      6 C         142.9630  141.5380  167.2993 C.3     1  UNL1        0.0199
      7 C         140.7940  143.2395  164.4444 C.ar    1  UNL1       -0.0223
      8 C         139.4357  143.8416  164.6510 C.ar    1  UNL1       -0.0012
      9 C         138.9149  144.8659  163.6869 C.ar    1  UNL1        0.0363
     10 C         139.7523  145.2881  162.5162 C.ar    1  UNL1        0.1337
     11 O         139.2314  146.3125  161.5520 O.3     1  UNL1       -0.5055
     12 C         141.1105  144.6860  162.3096 C.ar    1  UNL1        0.0363
     13 C         141.6314  143.6617  163.2737 C.ar    1  UNL1       -0.0012
     14 H         138.3829  146.6886  161.6811 H       1  UNL1        0.2922
     15 O         141.1658  139.9483  170.0816 O.2     1  UNL1       -0.2751
     16 C         142.2820  139.0332  169.6733 C.2     1  UNL1        0.2228
     17 N         142.8773  139.1423  168.3009 N.am    1  UNL1       -0.3060
     18 H         143.6099  138.5417  168.0329 H       1  UNL1        0.1494
     19 C         142.8028  138.0089  170.6375 C.3     1  UNL1        0.0913
     20 C         143.9247  137.0994  170.2322 C.3     1  UNL1        0.0554
     21 C         144.7908  136.4641  171.2793 C.ar    1  UNL1        0.0595
     22 C         144.6018  135.0188  171.6331 C.ar    1  UNL1        0.0148
     23 C         145.4680  134.3836  172.6801 C.ar    1  UNL1        0.0028
     24 C         146.5230  135.1937  173.3733 C.ar    1  UNL1        0.0207
     25 C         146.7119  136.6391  173.0195 C.ar    1  UNL1        0.0984
     26 N         145.8458  137.2743  171.9725 N.ar    1  UNL1       -0.2481
@<TRIPOS>BOND
     1    15    16    2
     2    16    19    1
     3    19    20    1
     4    20    21    1
     5    21    22   ar
     6    22    23   ar
     7    23    24   ar
     8    24    25   ar
     9    25    26   ar
    10    16    17   am
    11     1    17    1
    12     1     2    1
    13     2     3    1
    14     3     4    1
    15     4     7    1
    16     7     8   ar
    17     8     9   ar
    18     9    10   ar
    19    10    11    1
    20    10    12   ar
    21    12    13   ar
    22     4     5    1
    23     5     6    1
    24    26    21   ar
    25     6     1    1
    26    13     7   ar
    27    17    18    1
    28    11    14    1
@<TRIPOS>MOLECULE
*****
 26 28 0 0 0
SMALL
GASTEIGER

@<TRIPOS>ATOM
      1 C         139.2110  139.3503  163.8254 C.3     1  UNL1        0.0716
      2 C         138.3750  138.9435  165.0026 C.3     1  UNL1        0.0199
      3 C         138.8742  139.1850  166.3963 C.3     1  UNL1        0.0060
      4 C         140.2094  139.8333  166.6129 C.3     1  UNL1        0.0224
      5 C         141.0454  140.2401  165.4358 C.3     1  UNL1        0.0060
      6 C         140.5462  139.9986  164.0420 C.3     1  UNL1        0.0199
      7 C         140.7087  140.0748  168.0066 C.ar    1  UNL1       -0.0223
      8 C         139.7343  140.3205  169.1202 C.ar    1  UNL1       -0.0012
      9 C         140.2335  140.5620  170.5139 C.ar    1  UNL1        0.0363
     10 C         141.7071  140.5578  170.7940 C.ar    1  UNL1        0.1337
     11 O         142.2063  140.7993  172.1878 O.3     1  UNL1       -0.5055
     12 C         142.6815  140.3121  169.6804 C.ar    1  UNL1        0.0363
     13 C         142.1823  140.0706  168.2866 C.ar    1  UNL1       -0.0012
     14 H         141.5976  140.9528  172.8834 H       1  UNL1        0.2922
     15 O         137.3246  141.3024  162.5486 O.2     1  UNL1       -0.2751
     16 C         137.7686  140.0849  161.7933 C.2     1  UNL1        0.2228
     17 N         138.7118  139.1088  162.4317 N.am    1  UNL1       -0.3060
     18 H         139.0032  138.3097  161.9360 H       1  UNL1        0.1494
     19 C         137.2693  139.8434  160.3995 C.3     1  UNL1        0.0913
     20 C         138.1692  140.0955  159.2263 C.3     1  UNL1        0.0554
     21 C         137.6854  140.9263  158.0748 C.ar    1  UNL1        0.0595
     22 C         138.3043  142.2655  157.8039 C.ar    1  UNL1        0.0148
     23 C         137.8205  143.0961  156.6525 C.ar    1  UNL1        0.0028
     24 C         136.7178  142.5876  155.7719 C.ar    1  UNL1        0.0207
     25 C         136.0989  141.2484  156.0428 C.ar    1  UNL1        0.0984
     26 N         136.5827  140.4178  157.1943 N.ar    1  UNL1       -0.2481
@<TRIPOS>BOND
     1    15    16    2
     2    16    19    1
     3    19    20    1
     4    20    21    1
     5    21    22   ar
     6    22    23   ar
     7    23    24   ar
     8    24    25   ar
     9    25    26   ar
    10    16    17   am
    11     1    17    1
    12     1     2    1
    13     2     3    1
    14     3     4    1
    15     4     7    1
    16     7     8   ar
    17     8     9   ar
    18     9    10   ar
    19    10    11    1
    20    10    12   ar
    21    12    13   ar
    22     4     5    1
    23     5     6    1
    24    26    21   ar
    25     6     1    1
    26    13     7   ar
    27    17    18    1
    28    11    14    1
@<TRIPOS>MOLECULE
*****
 26 28 0 0 0
SMALL
GASTEIGER

@<TRIPOS>ATOM
      1 C         142.2504  138.4003  164.3422 C.3     1  UNL1        0.0716
      2 C         140.9083  139.0239  164.5877 C.3     1  UNL1        0.0199
      3 C         140.6022  139.6454  165.9181 C.3     1  UNL1        0.0060
      4 C         141.6380  139.6432  167.0030 C.3     1  UNL1        0.0224
      5 C         142.9799  139.0197  166.7576 C.3     1  UNL1        0.0060
      6 C         143.2861  138.3981  165.4272 C.3     1  UNL1        0.0199
      7 C         141.3318  140.2647  168.3334 C.ar    1  UNL1       -0.0223
      8 C         139.9334  140.7042  168.6520 C.ar    1  UNL1       -0.0012
      9 C         139.6272  141.3257  169.9823 C.ar    1  UNL1        0.0363
     10 C         140.7194  141.5077  170.9943 C.ar    1  UNL1        0.1337
     11 O         140.4132  142.1292  172.3248 O.3     1  UNL1       -0.5055
     12 C         142.1177  141.0682  170.6759 C.ar    1  UNL1        0.0363
     13 C         142.4240  140.4467  169.3454 C.ar    1  UNL1       -0.0012
     14 H         139.5396  142.4037  172.5237 H       1  UNL1        0.2922
     15 O         143.9224  139.8850  162.3424 O.2     1  UNL1       -0.2751
     16 C         143.3926  138.5212  162.0119 C.2     1  UNL1        0.2228
     17 N         142.5565  137.7788  163.0118 N.am    1  UNL1       -0.3060
     18 H         142.2087  136.8837  162.7949 H       1  UNL1        0.1494
     19 C         143.6988  137.8997  160.6814 C.3     1  UNL1        0.0913
     20 C         142.6339  137.8199  159.6280 C.3     1  UNL1        0.0554
     21 C         141.2986  138.4624  159.8612 C.ar    1  UNL1        0.0595
     22 C         140.9303  139.7156  159.1237 C.ar    1  UNL1        0.0148
     23 C         139.5951  140.3580  159.3568 C.ar    1  UNL1        0.0028
     24 C         138.6282  139.7473  160.3275 C.ar    1  UNL1        0.0207
     25 C         138.9965  138.4942  161.0650 C.ar    1  UNL1        0.0984
     26 N         140.3317  137.8517  160.8318 N.ar    1  UNL1       -0.2481
@<TRIPOS>BOND
     1    15    16    2
     2    16    19    1
     3    19    20    1
     4    20    21    1
     5    21    22   ar
     6    22    23   ar
     7    23    24   ar
     8    24    25   ar
     9    25    26   ar
    10    16    17   am
    11     1    17    1
    12     1     2    1
    13     2     3    1
    14     3     4    1
    15     4     7    1
    16     7     8   ar
    17     8     9   ar
    18     9    10   ar
    19    10    11    1
    20    10    12   ar
    21    12    13   ar
    22     4     5    1
    23     5     6    1
    24    26    21   ar
    25     6     1    1
    26    13     7   ar
    27    17    18    1
    28    11    14    1
@<TRIPOS>MOLECULE
*****
 26 28 0 0 0
SMALL
GASTEIGER

@<TRIPOS>ATOM
      1 C         140.9782  144.4162  163.3582 C.3     1  UNL1        0.0716
      2 C         141.8959  143.2975  163.7537 C.3     1  UNL1        0.0199
      3 C         141.6478  142.5369  165.0225 C.3     1  UNL1        0.0060
      4 C         140.4820  142.8949  165.8958 C.3     1  UNL1        0.0224
      5 C         139.5643  144.0136  165.5004 C.3     1  UNL1        0.0060
      6 C         139.8124  144.7743  164.2316 C.3     1  UNL1        0.0199
      7 C         140.2339  142.1343  167.1646 C.ar    1  UNL1       -0.0223
      8 C         139.7418  140.7184  167.1063 C.ar    1  UNL1       -0.0012
      9 C         139.4937  139.9578  168.3751 C.ar    1  UNL1        0.0363
     10 C         139.7376  140.6129  169.7022 C.ar    1  UNL1        0.1337
     11 O         139.4895  139.8522  170.9710 O.3     1  UNL1       -0.5055
     12 C         140.2296  142.0287  169.7606 C.ar    1  UNL1        0.0363
     13 C         140.4778  142.7894  168.4917 C.ar    1  UNL1       -0.0012
     14 H         139.1821  138.9678  170.9345 H       1  UNL1        0.2922
     15 O         139.1768  144.0162  160.9929 O.2     1  UNL1       -0.2751
     16 C         140.3256  144.9768  160.9068 C.2     1  UNL1        0.2228
     17 N         141.2263  145.1769  162.0895 N.am    1  UNL1       -0.3060
     18 H         141.9803  145.8074  162.0329 H       1  UNL1        0.1494
     19 C         140.5737  145.7375  159.6379 C.3     1  UNL1        0.0913
     20 C         141.4767  145.1661  158.5853 C.3     1  UNL1        0.0554
     21 C         142.1721  143.8584  158.8230 C.ar    1  UNL1        0.0595
     22 C         141.8764  142.6808  157.9422 C.ar    1  UNL1        0.0148
     23 C         142.5719  141.3732  158.1799 C.ar    1  UNL1        0.0028
     24 C         143.5630  141.2432  159.2983 C.ar    1  UNL1        0.0207
     25 C         143.8586  142.4209  160.1790 C.ar    1  UNL1        0.0984
     26 N         143.1632  143.7284  159.9414 N.ar    1  UNL1       -0.2481
@<TRIPOS>BOND
     1    15    16    2
     2    16    19    1
     3    19    20    1
     4    20    21    1
     5    21    22   ar
     6    22    23   ar
     7    23    24   ar
     8    24    25   ar
     9    25    26   ar
    10    16    17   am
    11     1    17    1
    12     1     2    1
    13     2     3    1
    14     3     4    1
    15     4     7    1
    16     7     8   ar
    17     8     9   ar
    18     9    10   ar
    19    10    11    1
    20    10    12   ar
    21    12    13   ar
    22     4     5    1
    23     5     6    1
    24    26    21   ar
    25     6     1    1
    26    13     7   ar
    27    17    18    1
    28    11    14    1
@<TRIPOS>MOLECULE
*****
 26 28 0 0 0
SMALL
GASTEIGER

@<TRIPOS>ATOM
      1 C         139.3250  139.3996  163.7476 C.3     1  UNL1        0.0716
      2 C         138.4750  138.9873  164.9127 C.3     1  UNL1        0.0199
      3 C         138.9620  139.2127  166.3134 C.3     1  UNL1        0.0060
      4 C         140.2991  139.8504  166.5490 C.3     1  UNL1        0.0224
      5 C         141.1491  140.2627  165.3840 C.3     1  UNL1        0.0060
      6 C         140.6621  140.0374  163.9832 C.3     1  UNL1        0.0199
      7 C         140.7861  140.0758  167.9497 C.ar    1  UNL1       -0.0223
      8 C         142.2572  140.1771  168.2251 C.ar    1  UNL1       -0.0012
      9 C         142.7442  140.4025  169.6258 C.ar    1  UNL1        0.0363
     10 C         141.7603  140.5266  170.7511 C.ar    1  UNL1        0.1337
     11 O         142.2474  140.7520  172.1519 O.3     1  UNL1       -0.5055
     12 C         140.2893  140.4253  170.4758 C.ar    1  UNL1        0.0363
     13 C         139.8022  140.1999  169.0751 C.ar    1  UNL1       -0.0012
     14 H         143.1663  140.8153  172.3239 H       1  UNL1        0.2922
     15 O         137.2638  141.2297  162.5636 O.2     1  UNL1       -0.2751
     16 C         137.8074  140.0893  161.7549 C.2     1  UNL1        0.2228
     17 N         138.8380  139.1743  162.3469 N.am    1  UNL1       -0.3060
     18 H         139.1948  138.4258  161.8161 H       1  UNL1        0.1494
     19 C         137.3203  139.8639  160.3541 C.3     1  UNL1        0.0913
     20 C         137.9957  140.5524  159.2054 C.3     1  UNL1        0.0554
     21 C         139.0989  141.5354  159.4638 C.ar    1  UNL1        0.0595
     22 C         140.5250  141.0714  159.4943 C.ar    1  UNL1        0.0148
     23 C         141.6281  142.0544  159.7527 C.ar    1  UNL1        0.0028
     24 C         141.3051  143.5014  159.9806 C.ar    1  UNL1        0.0207
     25 C         139.8791  143.9654  159.9501 C.ar    1  UNL1        0.0984
     26 N         138.7760  142.9824  159.6916 N.ar    1  UNL1       -0.2481
@<TRIPOS>BOND
     1    15    16    2
     2    16    19    1
     3    19    20    1
     4    20    21    1
     5    21    22   ar
     6    22    23   ar
     7    23    24   ar
     8    24    25   ar
     9    25    26   ar
    10    16    17   am
    11     1    17    1
    12     1     2    1
    13     2     3    1
    14     3     4    1
    15     4     7    1
    16     7     8   ar
    17     8     9   ar
    18     9    10   ar
    19    10    11    1
    20    10    12   ar
    21    12    13   ar
    22     4     5    1
    23     5     6    1
    24    26    21   ar
    25     6     1    1
    26    13     7   ar
    27    17    18    1
    28    11    14    1
@<TRIPOS>MOLECULE
*****
 26 28 0 0 0
SMALL
GASTEIGER

@<TRIPOS>ATOM
      1 C         142.1397  138.2941  164.1615 C.3     1  UNL1        0.0716
      2 C         140.7355  138.6488  164.5520 C.3     1  UNL1        0.0199
      3 C         140.4653  139.2856  165.8829 C.3     1  UNL1        0.0060
      4 C         141.5992  139.5678  166.8234 C.3     1  UNL1        0.0224
      5 C         143.0034  139.2131  166.4329 C.3     1  UNL1        0.0060
      6 C         143.2737  138.5763  165.1019 C.3     1  UNL1        0.0199
      7 C         141.3291  140.2046  168.1543 C.ar    1  UNL1       -0.0223
      8 C         139.9176  140.3658  168.6359 C.ar    1  UNL1       -0.0012
      9 C         139.6474  141.0027  169.9668 C.ar    1  UNL1        0.0363
     10 C         140.7886  141.4782  170.8162 C.ar    1  UNL1        0.1337
     11 O         140.5184  142.1151  172.1472 O.3     1  UNL1       -0.5055
     12 C         142.2000  141.3170  170.3347 C.ar    1  UNL1        0.0363
     13 C         142.4703  140.6802  169.0037 C.ar    1  UNL1       -0.0012
     14 H         139.6367  142.2158  172.4480 H       1  UNL1        0.2922
     15 O         143.0667  139.9741  161.8554 O.2     1  UNL1       -0.2751
     16 C         142.8734  138.4973  161.6775 C.2     1  UNL1        0.2228
     17 N         142.4099  137.6573  162.8305 N.am    1  UNL1       -0.3060
     18 H         142.2830  136.6880  162.7138 H       1  UNL1        0.1494
     19 C         143.1436  137.8605  160.3465 C.3     1  UNL1        0.0913
     20 C         142.5883  138.4736  159.0952 C.3     1  UNL1        0.0554
     21 C         142.2117  137.6001  157.9353 C.ar    1  UNL1        0.0595
     22 C         140.9062  137.8140  157.2282 C.ar    1  UNL1        0.0148
     23 C         140.5296  136.9406  156.0684 C.ar    1  UNL1        0.0028
     24 C         141.4585  135.8533  155.6156 C.ar    1  UNL1        0.0207
     25 C         142.7640  135.6394  156.3227 C.ar    1  UNL1        0.0984
     26 N         143.1406  136.5128  157.4825 N.ar    1  UNL1       -0.2481
@<TRIPOS>BOND
     1    15    16    2
     2    16    19    1
     3    19    20    1
     4    20    21    1
     5    21    22   ar
     6    22    23   ar
     7    23    24   ar
     8    24    25   ar
     9    25    26   ar
    10    16    17   am
    11     1    17    1
    12     1     2    1
    13     2     3    1
    14     3     4    1
    15     4     7    1
    16     7     8   ar
    17     8     9   ar
    18     9    10   ar
    19    10    11    1
    20    10    12   ar
    21    12    13   ar
    22     4     5    1
    23     5     6    1
    24    26    21   ar
    25     6     1    1
    26    13     7   ar
    27    17    18    1
    28    11    14    1
@<TRIPOS>MOLECULE
*****
 26 28 0 0 0
SMALL
GASTEIGER

@<TRIPOS>ATOM
      1 C         141.0904  144.4537  163.5820 C.3     1  UNL1        0.0716
      2 C         139.8197  144.6261  164.3603 C.3     1  UNL1        0.0199
      3 C         139.6360  143.9088  165.6648 C.3     1  UNL1        0.0060
      4 C         140.7229  143.0190  166.1910 C.3     1  UNL1        0.0224
      5 C         141.9936  142.8466  165.4128 C.3     1  UNL1        0.0060
      6 C         142.1773  143.5639  164.1083 C.3     1  UNL1        0.0199
      7 C         140.5392  142.3017  167.4955 C.ar    1  UNL1       -0.0223
      8 C         140.4570  143.0808  168.7748 C.ar    1  UNL1       -0.0012
      9 C         140.2733  142.3635  170.0792 C.ar    1  UNL1        0.0363
     10 C         140.1718  140.8671  170.1045 C.ar    1  UNL1        0.1337
     11 O         139.9881  140.1498  171.4091 O.3     1  UNL1       -0.5055
     12 C         140.2540  140.0881  168.8254 C.ar    1  UNL1        0.0363
     13 C         140.4377  140.8054  167.5208 C.ar    1  UNL1       -0.0012
     14 H         139.9367  140.6365  172.2082 H       1  UNL1        0.2922
     15 O         139.1810  143.9659  161.3202 O.2     1  UNL1       -0.2751
     16 C         140.3194  144.9271  161.1467 C.2     1  UNL1        0.2228
     17 N         141.2741  145.1710  162.2776 N.am    1  UNL1       -0.3060
     18 H         142.0213  145.8018  162.1637 H       1  UNL1        0.1494
     19 C         140.5031  145.6444  159.8421 C.3     1  UNL1        0.0913
     20 C         141.4206  145.0797  158.7984 C.3     1  UNL1        0.0554
     21 C         141.2349  145.4504  157.3568 C.ar    1  UNL1        0.0595
     22 C         142.1893  144.9346  156.3209 C.ar    1  UNL1        0.0148
     23 C         142.0036  145.3053  154.8793 C.ar    1  UNL1        0.0028
     24 C         140.8636  146.1918  154.4737 C.ar    1  UNL1        0.0207
     25 C         139.9093  146.7076  155.5096 C.ar    1  UNL1        0.0984
     26 N         140.0949  146.3369  156.9511 N.ar    1  UNL1       -0.2481
@<TRIPOS>BOND
     1    15    16    2
     2    16    19    1
     3    19    20    1
     4    20    21    1
     5    21    22   ar
     6    22    23   ar
     7    23    24   ar
     8    24    25   ar
     9    25    26   ar
    10    16    17   am
    11     1    17    1
    12     1     2    1
    13     2     3    1
    14     3     4    1
    15     4     7    1
    16     7     8   ar
    17     8     9   ar
    18     9    10   ar
    19    10    11    1
    20    10    12   ar
    21    12    13   ar
    22     4     5    1
    23     5     6    1
    24    26    21   ar
    25     6     1    1
    26    13     7   ar
    27    17    18    1
    28    11    14    1
@<TRIPOS>MOLECULE
*****
 26 28 0 0 0
SMALL
GASTEIGER

@<TRIPOS>ATOM
      1 C         141.8733  138.1883  164.2306 C.3     1  UNL1        0.0716
      2 C         143.0331  138.4565  165.1433 C.3     1  UNL1        0.0199
      3 C         142.8083  139.1338  166.4626 C.3     1  UNL1        0.0060
      4 C         141.4237  139.5429  166.8694 C.3     1  UNL1        0.0224
      5 C         140.2639  139.2748  165.9568 C.3     1  UNL1        0.0060
      6 C         140.4887  138.5975  164.6374 C.3     1  UNL1        0.0199
      7 C         141.1989  140.2202  168.1887 C.ar    1  UNL1       -0.0223
      8 C         141.8592  139.6891  169.4265 C.ar    1  UNL1       -0.0012
      9 C         141.6344  140.3664  170.7459 C.ar    1  UNL1        0.0363
     10 C         140.7494  141.5747  170.8275 C.ar    1  UNL1        0.1337
     11 O         140.5246  142.2520  172.1470 O.3     1  UNL1       -0.5055
     12 C         140.0891  142.1058  169.5898 C.ar    1  UNL1        0.0363
     13 C         140.3139  141.4285  168.2704 C.ar    1  UNL1       -0.0012
     14 H         140.9371  141.9203  172.9201 H       1  UNL1        0.2922
     15 O         143.1152  139.7039  161.9590 O.2     1  UNL1       -0.2751
     16 C         142.7190  138.2688  161.7754 C.2     1  UNL1        0.2228
     17 N         142.0981  137.5111  162.9113 N.am    1  UNL1       -0.3060
     18 H         141.8380  136.5692  162.7908 H       1  UNL1        0.1494
     19 C         142.9438  137.5916  160.4560 C.3     1  UNL1        0.0913
     20 C         142.4772  138.2444  159.1887 C.3     1  UNL1        0.0554
     21 C         142.9357  137.7181  157.8610 C.ar    1  UNL1        0.0595
     22 C         142.8494  136.2500  157.5658 C.ar    1  UNL1        0.0148
     23 C         143.3079  135.7237  156.2381 C.ar    1  UNL1        0.0028
     24 C         143.8527  136.6656  155.2056 C.ar    1  UNL1        0.0207
     25 C         143.9390  138.1337  155.5008 C.ar    1  UNL1        0.0984
     26 N         143.4805  138.6600  156.8285 N.ar    1  UNL1       -0.2481
@<TRIPOS>BOND
     1    15    16    2
     2    16    19    1
     3    19    20    1
     4    20    21    1
     5    21    22   ar
     6    22    23   ar
     7    23    24   ar
     8    24    25   ar
     9    25    26   ar
    10    16    17   am
    11     1    17    1
    12     1     2    1
    13     2     3    1
    14     3     4    1
    15     4     7    1
    16     7     8   ar
    17     8     9   ar
    18     9    10   ar
    19    10    11    1
    20    10    12   ar
    21    12    13   ar
    22     4     5    1
    23     5     6    1
    24    26    21   ar
    25     6     1    1
    26    13     7   ar
    27    17    18    1
    28    11    14    1
