@<TRIPOS>MOLECULE
*****
 34 38 0 0 0
SMALL
GASTEIGER

@<TRIPOS>ATOM
      1 O         139.2855  143.5740  157.2955 O.2     1  UNL1       -0.2526
      2 C         139.8568  144.5955  158.2337 C.2     1  UNL1        0.3039
      3 N         140.0704  146.0052  157.7679 N.am    1  UNL1       -0.2901
      4 N         140.2145  144.2073  159.6378 N.am    1  UNL1       -0.2642
      5 C         140.0009  142.7975  160.1036 C.3     1  UNL1        0.0954
      6 C         140.3586  142.4093  161.5077 C.3     1  UNL1        0.0309
      7 C         140.9299  143.4308  162.4459 C.3     1  UNL1        0.0827
      8 C         141.1435  144.8405  161.9800 C.3     1  UNL1        0.0309
      9 C         140.7858  145.2288  160.5760 C.3     1  UNL1        0.0954
     10 H         140.4454  146.6757  158.3836 H       1  UNL1        0.1509
     11 C         141.2875  143.0426  163.8499 C.ar    1  UNL1        0.2362
     12 N         140.3194  142.7231  164.9502 N.ar    1  UNL1       -0.1908
     13 C         141.1096  142.3887  166.1805 C.ar    1  UNL1        0.2032
     14 N         142.5663  142.5015  165.8406 N.ar    1  UNL1       -0.0560
     15 O         142.6762  142.9057  164.4003 O.2     1  UNL1       -0.3370
     16 C         140.5428  142.0083  167.5161 C.ar    1  UNL1        0.0430
     17 C         140.5423  143.0008  168.6408 C.ar    1  UNL1        0.0031
     18 C         139.9754  142.6205  169.9765 C.ar    1  UNL1        0.0001
     19 C         139.4091  141.2476  170.1875 C.ar    1  UNL1       -0.0001
     20 C         139.4096  140.2551  169.0628 C.ar    1  UNL1        0.0040
     21 C         139.9765  140.6355  167.7271 C.ar    1  UNL1        0.0745
     22 C         139.9770  139.6429  166.6024 C.3     1  UNL1        0.4187
     23 F         139.9775  138.6504  165.4778 F       1  UNL1       -0.1659
     24 F         138.5490  139.9869  166.2981 F       1  UNL1       -0.1659
     25 F         141.4050  139.2990  166.9067 F       1  UNL1       -0.1659
     26 C         139.7128  146.3935  156.3638 C.3     1  UNL1        0.0774
     27 C         139.3851  146.0059  154.9523 C.3     1  UNL1        0.0259
     28 C         139.4209  147.4535  155.3435 C.3     1  UNL1        0.0420
     29 C         139.2730  148.9014  154.9803 C.ar    1  UNL1       -0.0208
     30 C         139.7749  149.3976  153.6568 C.ar    1  UNL1       -0.0042
     31 C         139.6271  150.8455  153.2936 C.ar    1  UNL1       -0.0003
     32 C         138.9773  151.7970  154.2540 C.ar    1  UNL1       -0.0000
     33 C         138.4754  151.3008  155.5775 C.ar    1  UNL1       -0.0003
     34 C         138.6232  149.8530  155.9407 C.ar    1  UNL1       -0.0042
@<TRIPOS>BOND
     1     1     2    2
     2     2     3   am
     3     3    26    1
     4    26    27    1
     5    27    28    1
     6    28    29    1
     7    29    30   ar
     8    30    31   ar
     9    31    32   ar
    10    32    33   ar
    11    33    34   ar
    12     2     4   am
    13     4     5    1
    14     5     6    1
    15     6     7    1
    16     7    11    1
    17    11    12   ar
    18    12    13   ar
    19    13    16    1
    20    16    17   ar
    21    17    18   ar
    22    18    19   ar
    23    19    20   ar
    24    20    21   ar
    25    21    22    1
    26    22    23    1
    27    22    24    1
    28    22    25    1
    29    13    14   ar
    30    14    15   ar
    31     7     8    1
    32     8     9    1
    33    28    26    1
    34    34    29   ar
    35     9     4    1
    36    15    11   ar
    37    21    16   ar
    38     3    10    1
@<TRIPOS>MOLECULE
*****
 34 38 0 0 0
SMALL
GASTEIGER

@<TRIPOS>ATOM
      1 O         141.5170  144.6360  156.1910 O.2     1  UNL1       -0.2526
      2 C         141.0139  145.1431  157.5101 C.2     1  UNL1        0.3039
      3 N         139.9227  146.1715  157.5514 N.am    1  UNL1       -0.2901
      4 N         141.6020  144.6219  158.7877 N.am    1  UNL1       -0.2642
      5 C         142.6932  143.5934  158.7464 C.3     1  UNL1        0.0954
      6 C         143.2813  143.0722  160.0240 C.3     1  UNL1        0.0309
      7 C         142.7782  143.5793  161.3431 C.3     1  UNL1        0.0827
      8 C         141.6870  144.6077  161.3844 C.3     1  UNL1        0.0309
      9 C         141.0989  145.1290  160.1067 C.3     1  UNL1        0.0954
     10 H         139.5925  146.5044  158.4170 H       1  UNL1        0.1509
     11 C         143.3662  143.0581  162.6207 C.ar    1  UNL1        0.2362
     12 N         142.6013  142.4595  163.7637 N.ar    1  UNL1       -0.1908
     13 C         143.5848  142.0753  164.8292 C.ar    1  UNL1        0.2032
     14 N         144.9577  142.4365  164.3446 N.ar    1  UNL1       -0.0560
     15 O         144.8226  143.0438  162.9797 O.2     1  UNL1       -0.3370
     16 C         143.2536  141.4413  166.1476 C.ar    1  UNL1        0.0430
     17 C         143.1358  142.2895  167.3791 C.ar    1  UNL1        0.0031
     18 C         142.8046  141.6557  168.6977 C.ar    1  UNL1        0.0001
     19 C         142.5912  140.1735  168.7846 C.ar    1  UNL1       -0.0001
     20 C         142.7090  139.3252  167.5531 C.ar    1  UNL1        0.0040
     21 C         143.0402  139.9592  166.2346 C.ar    1  UNL1        0.0745
     22 C         143.1580  139.1109  165.0031 C.3     1  UNL1        0.4187
     23 F         143.2757  138.2626  163.7716 F       1  UNL1       -0.1659
     24 F         144.6369  138.9940  165.2250 F       1  UNL1       -0.1659
     25 F         141.6791  139.2279  164.7812 F       1  UNL1       -0.1659
     26 C         139.3347  146.6928  156.2737 C.3     1  UNL1        0.0774
     27 C         138.6150  146.4490  154.9804 C.3     1  UNL1        0.0259
     28 C         139.0357  147.8394  155.3540 C.3     1  UNL1        0.0420
     29 C         139.1061  149.3043  155.0388 C.ar    1  UNL1       -0.0208
     30 C         138.5585  150.3076  156.0100 C.ar    1  UNL1       -0.0042
     31 C         138.6288  151.7724  155.6947 C.ar    1  UNL1       -0.0003
     32 C         139.2469  152.2338  154.4082 C.ar    1  UNL1       -0.0000
     33 C         139.7945  151.2305  153.4370 C.ar    1  UNL1       -0.0003
     34 C         139.7241  149.7657  153.7523 C.ar    1  UNL1       -0.0042
@<TRIPOS>BOND
     1     1     2    2
     2     2     3   am
     3     3    26    1
     4    26    27    1
     5    27    28    1
     6    28    29    1
     7    29    30   ar
     8    30    31   ar
     9    31    32   ar
    10    32    33   ar
    11    33    34   ar
    12     2     4   am
    13     4     5    1
    14     5     6    1
    15     6     7    1
    16     7    11    1
    17    11    12   ar
    18    12    13   ar
    19    13    16    1
    20    16    17   ar
    21    17    18   ar
    22    18    19   ar
    23    19    20   ar
    24    20    21   ar
    25    21    22    1
    26    22    23    1
    27    22    24    1
    28    22    25    1
    29    13    14   ar
    30    14    15   ar
    31     7     8    1
    32     8     9    1
    33    28    26    1
    34    34    29   ar
    35     9     4    1
    36    15    11   ar
    37    21    16   ar
    38     3    10    1
@<TRIPOS>MOLECULE
*****
 34 38 0 0 0
SMALL
GASTEIGER

@<TRIPOS>ATOM
      1 O         140.7289  138.1629  157.8138 O.2     1  UNL1       -0.2526
      2 C         142.0233  138.0038  158.5551 C.2     1  UNL1        0.3039
      3 N         143.2685  137.6147  157.8149 N.am    1  UNL1       -0.2901
      4 N         142.0723  138.2339  160.0365 N.am    1  UNL1       -0.2642
      5 C         140.8270  138.6231  160.7767 C.3     1  UNL1        0.0954
      6 C         140.8760  138.8532  162.2581 C.3     1  UNL1        0.0309
      7 C         142.1704  138.6941  162.9994 C.3     1  UNL1        0.0827
      8 C         143.4156  138.3049  162.2592 C.3     1  UNL1        0.0309
      9 C         143.3666  138.0748  160.7778 C.3     1  UNL1        0.0954
     10 H         144.1180  137.5102  158.3014 H       1  UNL1        0.1509
     11 C         142.2195  138.9242  164.4808 C.ar    1  UNL1        0.2362
     12 N         141.3126  139.8271  165.2633 N.ar    1  UNL1       -0.1908
     13 C         141.7166  139.7528  166.7060 C.ar    1  UNL1        0.2032
     14 N         142.8732  138.8038  166.8151 N.ar    1  UNL1       -0.0560
     15 O         143.1840  138.2918  165.4399 O.2     1  UNL1       -0.3370
     16 C         141.0765  140.4967  167.8404 C.ar    1  UNL1        0.0430
     17 C         139.8779  139.9201  168.5337 C.ar    1  UNL1        0.0031
     18 C         139.2376  140.6639  169.6681 C.ar    1  UNL1        0.0001
     19 C         139.7961  141.9844  170.1091 C.ar    1  UNL1       -0.0001
     20 C         140.9947  142.5610  169.4157 C.ar    1  UNL1        0.0040
     21 C         141.6349  141.8171  168.2813 C.ar    1  UNL1        0.0745
     22 C         142.8336  142.3937  167.5880 C.3     1  UNL1        0.4187
     23 F         144.0323  142.9703  166.8947 F       1  UNL1       -0.1659
     24 F         141.9613  142.8433  166.4536 F       1  UNL1       -0.1659
     25 F         143.7060  141.9441  168.7225 F       1  UNL1       -0.1659
     26 C         143.2194  137.3846  156.3335 C.3     1  UNL1        0.0774
     27 C         143.2885  137.9176  154.9331 C.3     1  UNL1        0.0259
     28 C         143.0654  136.4530  155.1680 C.3     1  UNL1        0.0420
     29 C         142.8476  135.0695  154.6307 C.ar    1  UNL1       -0.0208
     30 C         143.4076  133.8847  155.3605 C.ar    1  UNL1       -0.0042
     31 C         143.1898  132.5014  154.8231 C.ar    1  UNL1       -0.0003
     32 C         142.4120  132.3027  153.5560 C.ar    1  UNL1       -0.0000
     33 C         141.8520  133.4875  152.8262 C.ar    1  UNL1       -0.0003
     34 C         142.0698  134.8709  153.3636 C.ar    1  UNL1       -0.0042
@<TRIPOS>BOND
     1     1     2    2
     2     2     3   am
     3     3    26    1
     4    26    27    1
     5    27    28    1
     6    28    29    1
     7    29    30   ar
     8    30    31   ar
     9    31    32   ar
    10    32    33   ar
    11    33    34   ar
    12     2     4   am
    13     4     5    1
    14     5     6    1
    15     6     7    1
    16     7    11    1
    17    11    12   ar
    18    12    13   ar
    19    13    16    1
    20    16    17   ar
    21    17    18   ar
    22    18    19   ar
    23    19    20   ar
    24    20    21   ar
    25    21    22    1
    26    22    23    1
    27    22    24    1
    28    22    25    1
    29    13    14   ar
    30    14    15   ar
    31     7     8    1
    32     8     9    1
    33    28    26    1
    34    34    29   ar
    35     9     4    1
    36    15    11   ar
    37    21    16   ar
    38     3    10    1
@<TRIPOS>MOLECULE
*****
 34 38 0 0 0
SMALL
GASTEIGER

@<TRIPOS>ATOM
      1 O         144.3871  139.8965  157.3387 O.2     1  UNL1       -0.2526
      2 C         144.5865  141.0711  158.2500 C.2     1  UNL1        0.3039
      3 N         145.1075  142.3662  157.7012 N.am    1  UNL1       -0.2901
      4 N         144.2650  140.9506  159.7102 N.am    1  UNL1       -0.2642
      5 C         143.7440  139.6554  160.2590 C.3     1  UNL1        0.0954
      6 C         143.4224  139.5349  161.7192 C.3     1  UNL1        0.0309
      7 C         143.6219  140.7096  162.6305 C.3     1  UNL1        0.0827
      8 C         144.1429  142.0046  162.0817 C.3     1  UNL1        0.0309
      9 C         144.4644  142.1252  160.6215 C.3     1  UNL1        0.0954
     10 H         145.2384  143.1372  158.2993 H       1  UNL1        0.1509
     11 C         143.3004  140.5890  164.0907 C.ar    1  UNL1        0.2362
     12 N         142.8663  141.7059  164.9930 N.ar    1  UNL1       -0.1908
     13 C         142.6541  141.1376  166.3649 C.ar    1  UNL1        0.2032
     14 N         142.9571  139.6695  166.3105 N.ar    1  UNL1       -0.0560
     15 O         143.3565  139.3305  164.9049 O.2     1  UNL1       -0.3370
     16 C         142.2158  141.9030  167.5782 C.ar    1  UNL1        0.0430
     17 C         143.1667  142.1067  168.7203 C.ar    1  UNL1        0.0031
     18 C         142.7286  142.8721  169.9337 C.ar    1  UNL1        0.0001
     19 C         141.3395  143.4339  170.0048 C.ar    1  UNL1       -0.0001
     20 C         140.3887  143.2302  168.8627 C.ar    1  UNL1        0.0040
     21 C         140.8269  142.4647  167.6494 C.ar    1  UNL1        0.0745
     22 C         139.8760  142.2611  166.5073 C.3     1  UNL1        0.4187
     23 F         138.9251  142.0574  165.3653 F       1  UNL1       -0.1659
     24 F         140.2684  143.5942  165.9427 F       1  UNL1       -0.1659
     25 F         139.4836  140.9279  167.0719 F       1  UNL1       -0.1659
     26 C         145.4291  142.4867  156.2410 C.3     1  UNL1        0.0774
     27 C         144.9752  142.6232  154.8179 C.3     1  UNL1        0.0259
     28 C         146.4399  142.5591  155.1351 C.3     1  UNL1        0.0420
     29 C         147.8691  142.5638  154.6798 C.ar    1  UNL1       -0.0208
     30 C         148.2746  143.3827  153.4903 C.ar    1  UNL1       -0.0042
     31 C         149.7038  143.3874  153.0350 C.ar    1  UNL1       -0.0003
     32 C         150.7275  142.5732  153.7693 C.ar    1  UNL1       -0.0000
     33 C         150.3220  141.7543  154.9588 C.ar    1  UNL1       -0.0003
     34 C         148.8928  141.7496  155.4140 C.ar    1  UNL1       -0.0042
@<TRIPOS>BOND
     1     1     2    2
     2     2     3   am
     3     3    26    1
     4    26    27    1
     5    27    28    1
     6    28    29    1
     7    29    30   ar
     8    30    31   ar
     9    31    32   ar
    10    32    33   ar
    11    33    34   ar
    12     2     4   am
    13     4     5    1
    14     5     6    1
    15     6     7    1
    16     7    11    1
    17    11    12   ar
    18    12    13   ar
    19    13    16    1
    20    16    17   ar
    21    17    18   ar
    22    18    19   ar
    23    19    20   ar
    24    20    21   ar
    25    21    22    1
    26    22    23    1
    27    22    24    1
    28    22    25    1
    29    13    14   ar
    30    14    15   ar
    31     7     8    1
    32     8     9    1
    33    28    26    1
    34    34    29   ar
    35     9     4    1
    36    15    11   ar
    37    21    16   ar
    38     3    10    1
@<TRIPOS>MOLECULE
*****
 34 38 0 0 0
SMALL
GASTEIGER

@<TRIPOS>ATOM
      1 O         141.5860  138.3670  165.2491 O.2     1  UNL1       -0.2526
      2 C         140.6087  138.5280  164.1226 C.2     1  UNL1        0.3039
      3 N         139.1679  138.8242  164.4162 N.am    1  UNL1       -0.2901
      4 N         141.0723  138.3928  162.7024 N.am    1  UNL1       -0.2642
      5 C         142.5132  138.0965  162.4088 C.3     1  UNL1        0.0954
      6 C         142.9768  137.9613  160.9887 C.3     1  UNL1        0.0309
      7 C         141.9995  138.1224  159.8621 C.3     1  UNL1        0.0827
      8 C         140.5587  138.4186  160.1558 C.3     1  UNL1        0.0309
      9 C         140.0951  138.5538  161.5759 C.3     1  UNL1        0.0954
     10 H         138.5265  138.9299  163.6769 H       1  UNL1        0.1509
     11 C         142.4630  137.9871  158.4420 C.ar    1  UNL1        0.2362
     12 N         141.8179  137.1468  157.3801 N.ar    1  UNL1       -0.1908
     13 C         142.6093  137.3088  156.1162 C.ar    1  UNL1        0.2032
     14 N         143.7436  138.2493  156.3969 N.ar    1  UNL1       -0.0560
     15 O         143.6532  138.6686  157.8343 O.2     1  UNL1       -0.3370
     16 C         142.3176  136.6466  154.8023 C.ar    1  UNL1        0.0430
     17 C         141.9448  137.4772  153.6103 C.ar    1  UNL1        0.0031
     18 C         141.6531  136.8151  152.2963 C.ar    1  UNL1        0.0001
     19 C         141.7342  135.3222  152.1744 C.ar    1  UNL1       -0.0001
     20 C         142.1069  134.4916  153.3665 C.ar    1  UNL1        0.0040
     21 C         142.3987  135.1538  154.6805 C.ar    1  UNL1        0.0745
     22 C         142.7714  134.3231  155.8726 C.3     1  UNL1        0.4187
     23 F         143.1443  133.4924  157.0646 F       1  UNL1       -0.1659
     24 F         141.3363  133.9204  156.0408 F       1  UNL1       -0.1659
     25 F         144.2066  134.7258  155.7043 F       1  UNL1       -0.1659
     26 C         138.7043  138.9595  165.8364 C.3     1  UNL1        0.0774
     27 C         137.7574  138.5786  166.9356 C.3     1  UNL1        0.0259
     28 C         138.8483  139.5745  167.1969 C.3     1  UNL1        0.0420
     29 C         139.5613  140.5045  168.1332 C.ar    1  UNL1       -0.0208
     30 C         139.3767  140.3637  169.6151 C.ar    1  UNL1       -0.0042
     31 C         140.0897  141.2937  170.5514 C.ar    1  UNL1       -0.0003
     32 C         140.9873  142.3645  170.0058 C.ar    1  UNL1       -0.0000
     33 C         141.1720  142.5053  168.5239 C.ar    1  UNL1       -0.0003
     34 C         140.4590  141.5752  167.5876 C.ar    1  UNL1       -0.0042
@<TRIPOS>BOND
     1     1     2    2
     2     2     3   am
     3     3    26    1
     4    26    27    1
     5    27    28    1
     6    28    29    1
     7    29    30   ar
     8    30    31   ar
     9    31    32   ar
    10    32    33   ar
    11    33    34   ar
    12     2     4   am
    13     4     5    1
    14     5     6    1
    15     6     7    1
    16     7    11    1
    17    11    12   ar
    18    12    13   ar
    19    13    16    1
    20    16    17   ar
    21    17    18   ar
    22    18    19   ar
    23    19    20   ar
    24    20    21   ar
    25    21    22    1
    26    22    23    1
    27    22    24    1
    28    22    25    1
    29    13    14   ar
    30    14    15   ar
    31     7     8    1
    32     8     9    1
    33    28    26    1
    34    34    29   ar
    35     9     4    1
    36    15    11   ar
    37    21    16   ar
    38     3    10    1
@<TRIPOS>MOLECULE
*****
 34 38 0 0 0
SMALL
GASTEIGER

@<TRIPOS>ATOM
      1 O         137.8618  142.9073  156.8484 O.2     1  UNL1       -0.2526
      2 C         137.8374  141.7418  157.7924 C.2     1  UNL1        0.3039
      3 N         136.8575  140.6259  157.5811 N.am    1  UNL1       -0.2901
      4 N         138.7928  141.6922  158.9476 N.am    1  UNL1       -0.2642
      5 C         139.7727  142.8081  159.1589 C.3     1  UNL1        0.0954
      6 C         140.7282  142.7585  160.3142 C.3     1  UNL1        0.0309
      7 C         140.7038  141.5930  161.2582 C.3     1  UNL1        0.0827
      8 C         139.7239  140.4771  161.0468 C.3     1  UNL1        0.0309
      9 C         138.7685  140.5267  159.8916 C.3     1  UNL1        0.0954
     10 H         136.8415  139.8609  158.2006 H       1  UNL1        0.1509
     11 C         141.6592  141.5434  162.4134 C.ar    1  UNL1        0.2362
     12 N         141.2990  141.2754  163.8447 N.ar    1  UNL1       -0.1908
     13 C         142.5598  141.3195  164.6561 C.ar    1  UNL1        0.2032
     14 N         143.6993  141.6147  163.7264 N.ar    1  UNL1       -0.0560
     15 O         143.1427  141.7531  162.3403 O.2     1  UNL1       -0.3370
     16 C         142.6630  141.1058  166.1372 C.ar    1  UNL1        0.0430
     17 C         142.9202  142.2705  167.0468 C.ar    1  UNL1        0.0031
     18 C         143.0234  142.0570  168.5280 C.ar    1  UNL1        0.0001
     19 C         142.8694  140.6787  169.0995 C.ar    1  UNL1       -0.0001
     20 C         142.6122  139.5140  168.1899 C.ar    1  UNL1        0.0040
     21 C         142.5090  139.7276  166.7087 C.ar    1  UNL1        0.0745
     22 C         142.2518  138.5629  165.7991 C.3     1  UNL1        0.4187
     23 F         141.9945  137.3982  164.8896 F       1  UNL1       -0.1659
     24 F         143.7286  138.3277  165.6825 F       1  UNL1       -0.1659
     25 F         140.7749  138.7981  165.9158 F       1  UNL1       -0.1659
     26 C         135.9021  140.6755  156.4258 C.3     1  UNL1        0.0774
     27 C         135.6325  140.9352  154.9733 C.3     1  UNL1        0.0259
     28 C         134.5168  140.5017  155.8774 C.3     1  UNL1        0.0420
     29 C         133.0729  140.1511  156.0828 C.ar    1  UNL1       -0.0208
     30 C         132.0035  141.1457  155.7405 C.ar    1  UNL1       -0.0042
     31 C         130.5597  140.7951  155.9459 C.ar    1  UNL1       -0.0003
     32 C         130.1851  139.4498  156.4935 C.ar    1  UNL1       -0.0000
     33 C         131.2544  138.4552  156.8358 C.ar    1  UNL1       -0.0003
     34 C         132.6983  138.8058  156.6304 C.ar    1  UNL1       -0.0042
@<TRIPOS>BOND
     1     1     2    2
     2     2     3   am
     3     3    26    1
     4    26    27    1
     5    27    28    1
     6    28    29    1
     7    29    30   ar
     8    30    31   ar
     9    31    32   ar
    10    32    33   ar
    11    33    34   ar
    12     2     4   am
    13     4     5    1
    14     5     6    1
    15     6     7    1
    16     7    11    1
    17    11    12   ar
    18    12    13   ar
    19    13    16    1
    20    16    17   ar
    21    17    18   ar
    22    18    19   ar
    23    19    20   ar
    24    20    21   ar
    25    21    22    1
    26    22    23    1
    27    22    24    1
    28    22    25    1
    29    13    14   ar
    30    14    15   ar
    31     7     8    1
    32     8     9    1
    33    28    26    1
    34    34    29   ar
    35     9     4    1
    36    15    11   ar
    37    21    16   ar
    38     3    10    1
@<TRIPOS>MOLECULE
*****
 34 38 0 0 0
SMALL
GASTEIGER

@<TRIPOS>ATOM
      1 O         144.0693  139.3335  158.0991 O.2     1  UNL1       -0.2526
      2 C         143.0897  138.5614  158.9323 C.2     1  UNL1        0.3039
      3 N         142.1327  137.6106  158.2765 N.am    1  UNL1       -0.2901
      4 N         143.0670  138.7402  160.4215 N.am    1  UNL1       -0.2642
      5 C         144.0240  139.6910  161.0773 C.3     1  UNL1        0.0954
      6 C         144.0014  139.8698  162.5665 C.3     1  UNL1        0.0309
      7 C         143.0218  139.0977  163.3998 C.3     1  UNL1        0.0827
      8 C         142.0648  138.1469  162.7439 C.3     1  UNL1        0.0309
      9 C         142.0875  137.9681  161.2547 C.3     1  UNL1        0.0954
     10 H         141.4898  137.1038  158.8234 H       1  UNL1        0.1509
     11 C         142.9991  139.2765  164.8889 C.ar    1  UNL1        0.2362
     12 N         142.4747  140.4734  165.6254 N.ar    1  UNL1       -0.1908
     13 C         142.6484  140.2264  167.0947 C.ar    1  UNL1        0.2032
     14 N         143.2802  138.8768  167.2663 N.ar    1  UNL1       -0.0560
     15 O         143.4970  138.2898  165.9030 O.2     1  UNL1       -0.3370
     16 C         142.2587  141.1643  168.1985 C.ar    1  UNL1        0.0430
     17 C         143.3174  141.8875  168.9769 C.ar    1  UNL1        0.0031
     18 C         142.9279  142.8254  170.0808 C.ar    1  UNL1        0.0001
     19 C         141.4794  143.0401  170.4062 C.ar    1  UNL1       -0.0001
     20 C         140.4206  142.3169  169.6278 C.ar    1  UNL1        0.0040
     21 C         140.8103  141.3789  168.5239 C.ar    1  UNL1        0.0745
     22 C         139.7514  140.6557  167.7455 C.3     1  UNL1        0.4187
     23 F         138.6926  139.9326  166.9671 F       1  UNL1       -0.1659
     24 F         139.7741  139.5416  168.7496 F       1  UNL1       -0.1659
     25 F         139.7288  141.7699  166.7414 F       1  UNL1       -0.1659
     26 C         142.1554  137.4318  156.7873 C.3     1  UNL1        0.0774
     27 C         142.2049  138.0211  155.4089 C.3     1  UNL1        0.0259
     28 C         142.1451  136.5329  155.5866 C.3     1  UNL1        0.0420
     29 C         142.1046  135.1546  154.9960 C.ar    1  UNL1       -0.0208
     30 C         141.9672  134.9779  153.5128 C.ar    1  UNL1       -0.0042
     31 C         141.9267  133.5997  152.9223 C.ar    1  UNL1       -0.0003
     32 C         142.0236  132.3981  153.8149 C.ar    1  UNL1       -0.0000
     33 C         142.1611  132.5748  155.2981 C.ar    1  UNL1       -0.0003
     34 C         142.2015  133.9530  155.8886 C.ar    1  UNL1       -0.0042
@<TRIPOS>BOND
     1     1     2    2
     2     2     3   am
     3     3    26    1
     4    26    27    1
     5    27    28    1
     6    28    29    1
     7    29    30   ar
     8    30    31   ar
     9    31    32   ar
    10    32    33   ar
    11    33    34   ar
    12     2     4   am
    13     4     5    1
    14     5     6    1
    15     6     7    1
    16     7    11    1
    17    11    12   ar
    18    12    13   ar
    19    13    16    1
    20    16    17   ar
    21    17    18   ar
    22    18    19   ar
    23    19    20   ar
    24    20    21   ar
    25    21    22    1
    26    22    23    1
    27    22    24    1
    28    22    25    1
    29    13    14   ar
    30    14    15   ar
    31     7     8    1
    32     8     9    1
    33    28    26    1
    34    34    29   ar
    35     9     4    1
    36    15    11   ar
    37    21    16   ar
    38     3    10    1
@<TRIPOS>MOLECULE
*****
 34 38 0 0 0
SMALL
GASTEIGER

@<TRIPOS>ATOM
      1 O         141.1550  137.8099  157.2190 O.2     1  UNL1       -0.2526
      2 C         142.2606  137.3863  158.1401 C.2     1  UNL1        0.3039
      3 N         143.2735  136.3790  157.6825 N.am    1  UNL1       -0.2901
      4 N         142.3532  137.9699  159.5188 N.am    1  UNL1       -0.2642
      5 C         141.3402  138.9772  159.9764 C.3     1  UNL1        0.0954
      6 C         141.4328  139.5608  161.3551 C.3     1  UNL1        0.0309
      7 C         142.5384  139.1372  162.2762 C.3     1  UNL1        0.0827
      8 C         143.5513  138.1300  161.8185 C.3     1  UNL1        0.0309
      9 C         143.4587  137.5463  160.4399 C.3     1  UNL1        0.0954
     10 H         143.9991  136.1010  158.2870 H       1  UNL1        0.1509
     11 C         142.6310  139.7209  163.6549 C.ar    1  UNL1        0.2362
     12 N         141.8734  139.2544  164.8625 N.ar    1  UNL1       -0.1908
     13 C         142.2717  140.1187  166.0220 C.ar    1  UNL1        0.2032
     14 N         143.2754  141.1194  165.5309 N.ar    1  UNL1       -0.0560
     15 O         143.4975  140.8735  164.0680 O.2     1  UNL1       -0.3370
     16 C         141.7566  140.0027  167.4260 C.ar    1  UNL1        0.0430
     17 C         142.6669  139.5348  168.5225 C.ar    1  UNL1        0.0031
     18 C         142.1519  139.4187  169.9266 C.ar    1  UNL1        0.0001
     19 C         140.7265  139.7706  170.2340 C.ar    1  UNL1       -0.0001
     20 C         139.8162  140.2385  169.1375 C.ar    1  UNL1        0.0040
     21 C         140.3313  140.3545  167.7334 C.ar    1  UNL1        0.0745
     22 C         139.4209  140.8224  166.6369 C.3     1  UNL1        0.4187
     23 F         138.5105  141.2902  165.5404 F       1  UNL1       -0.1659
     24 F         139.9077  142.2277  166.8323 F       1  UNL1       -0.1659
     25 F         138.9340  139.4171  166.4416 F       1  UNL1       -0.1659
     26 C         143.1809  135.7954  156.3038 C.3     1  UNL1        0.0774
     27 C         142.9140  135.9633  154.8374 C.3     1  UNL1        0.0259
     28 C         143.2875  134.6166  155.3824 C.3     1  UNL1        0.0420
     29 C         143.5646  133.1585  155.1650 C.ar    1  UNL1       -0.0208
     30 C         144.4893  132.4247  156.0905 C.ar    1  UNL1       -0.0042
     31 C         144.7664  130.9667  155.8731 C.ar    1  UNL1       -0.0003
     32 C         144.1188  130.2424  154.7303 C.ar    1  UNL1       -0.0000
     33 C         143.1941  130.9762  153.8049 C.ar    1  UNL1       -0.0003
     34 C         142.9170  132.4342  154.0222 C.ar    1  UNL1       -0.0042
@<TRIPOS>BOND
     1     1     2    2
     2     2     3   am
     3     3    26    1
     4    26    27    1
     5    27    28    1
     6    28    29    1
     7    29    30   ar
     8    30    31   ar
     9    31    32   ar
    10    32    33   ar
    11    33    34   ar
    12     2     4   am
    13     4     5    1
    14     5     6    1
    15     6     7    1
    16     7    11    1
    17    11    12   ar
    18    12    13   ar
    19    13    16    1
    20    16    17   ar
    21    17    18   ar
    22    18    19   ar
    23    19    20   ar
    24    20    21   ar
    25    21    22    1
    26    22    23    1
    27    22    24    1
    28    22    25    1
    29    13    14   ar
    30    14    15   ar
    31     7     8    1
    32     8     9    1
    33    28    26    1
    34    34    29   ar
    35     9     4    1
    36    15    11   ar
    37    21    16   ar
    38     3    10    1
@<TRIPOS>MOLECULE
*****
 34 38 0 0 0
SMALL
GASTEIGER

@<TRIPOS>ATOM
      1 O         144.8415  139.9960  157.1435 O.2     1  UNL1       -0.2526
      2 C         144.7872  141.3657  157.7527 C.2     1  UNL1        0.3039
      3 N         145.2409  142.5568  156.9618 N.am    1  UNL1       -0.2901
      4 N         144.2792  141.5443  159.1527 N.am    1  UNL1       -0.2642
      5 C         143.8255  140.3531  159.9435 C.3     1  UNL1        0.0954
      6 C         143.3175  140.5317  161.3436 C.3     1  UNL1        0.0309
      7 C         143.2632  141.9014  161.9527 C.3     1  UNL1        0.0827
      8 C         143.7169  143.0925  161.1619 C.3     1  UNL1        0.0309
      9 C         144.2249  142.9139  159.7619 C.3     1  UNL1        0.0954
     10 H         145.2053  143.4558  157.3617 H       1  UNL1        0.1509
     11 C         142.7551  142.0799  163.3527 C.ar    1  UNL1        0.2362
     12 N         143.2643  141.3709  164.5726 N.ar    1  UNL1       -0.1908
     13 C         142.4726  141.8516  165.7525 C.ar    1  UNL1        0.2032
     14 N         141.4742  142.8578  165.2619 N.ar    1  UNL1       -0.0560
     15 O         141.6488  142.9989  163.7788 O.2     1  UNL1       -0.3370
     16 C         142.6485  141.4046  167.1735 C.ar    1  UNL1        0.0430
     17 C         143.1565  142.3677  168.2052 C.ar    1  UNL1        0.0031
     18 C         143.3325  141.9208  169.6262 C.ar    1  UNL1        0.0001
     19 C         143.0004  140.5108  170.0156 C.ar    1  UNL1       -0.0001
     20 C         142.4923  139.5478  168.9839 C.ar    1  UNL1        0.0040
     21 C         142.3164  139.9947  167.5628 C.ar    1  UNL1        0.0745
     22 C         141.8084  139.0316  166.5311 C.3     1  UNL1        0.4187
     23 F         141.3002  138.0685  165.4995 F       1  UNL1       -0.1659
     24 F         143.2070  138.5415  166.2997 F       1  UNL1       -0.1659
     25 F         140.4096  139.5217  166.7625 F       1  UNL1       -0.1659
     26 C         145.7489  142.3782  155.5618 C.3     1  UNL1        0.0774
     27 C         145.4909  142.0819  154.1142 C.3     1  UNL1        0.0259
     28 C         146.8868  142.3653  154.5846 C.3     1  UNL1        0.0420
     29 C         148.3497  142.5215  154.2920 C.ar    1  UNL1       -0.0208
     30 C         148.8034  143.4687  153.2211 C.ar    1  UNL1       -0.0042
     31 C         150.2663  143.6248  152.9285 C.ar    1  UNL1       -0.0003
     32 C         151.2754  142.8337  153.7068 C.ar    1  UNL1       -0.0000
     33 C         150.8217  141.8864  154.7777 C.ar    1  UNL1       -0.0003
     34 C         149.3588  141.7303  155.0703 C.ar    1  UNL1       -0.0042
@<TRIPOS>BOND
     1     1     2    2
     2     2     3   am
     3     3    26    1
     4    26    27    1
     5    27    28    1
     6    28    29    1
     7    29    30   ar
     8    30    31   ar
     9    31    32   ar
    10    32    33   ar
    11    33    34   ar
    12     2     4   am
    13     4     5    1
    14     5     6    1
    15     6     7    1
    16     7    11    1
    17    11    12   ar
    18    12    13   ar
    19    13    16    1
    20    16    17   ar
    21    17    18   ar
    22    18    19   ar
    23    19    20   ar
    24    20    21   ar
    25    21    22    1
    26    22    23    1
    27    22    24    1
    28    22    25    1
    29    13    14   ar
    30    14    15   ar
    31     7     8    1
    32     8     9    1
    33    28    26    1
    34    34    29   ar
    35     9     4    1
    36    15    11   ar
    37    21    16   ar
    38     3    10    1
