@<TRIPOS>MOLECULE
*****
 23 25 0 0 0
SMALL
GASTEIGER

@<TRIPOS>ATOM
      1 N         142.9298  143.4848  158.5869 N.3     1  UNL1       -0.2711
      2 C         142.0468  144.6688  158.3252 C.3     1  UNL1        0.0939
      3 C         141.1376  145.1792  159.4036 C.3     1  UNL1        0.1123
      4 N         141.1115  144.5058  160.7436 N.am    1  UNL1       -0.2612
      5 C         140.2023  145.0162  161.8220 C.2     1  UNL1        0.3072
      6 O         139.3193  146.2002  161.5603 O.2     1  UNL1       -0.2523
      7 N         140.1762  144.3427  163.1620 N.am    1  UNL1       -0.2640
      8 C         141.0593  143.1587  163.4237 C.3     1  UNL1        0.0953
      9 C         141.0331  142.4853  164.7637 C.3     1  UNL1        0.0260
     10 C         140.1240  142.9957  165.8421 C.3     1  UNL1        0.0257
     11 C         139.2410  144.1797  165.5804 C.3     1  UNL1        0.0260
     12 C         139.2671  144.8532  164.2403 C.3     1  UNL1        0.0953
     13 C         141.9945  143.3218  161.0053 C.3     1  UNL1        0.1123
     14 C         142.9037  142.8114  159.9269 C.3     1  UNL1        0.0939
     15 C         140.0979  142.3222  167.1822 C.ar    1  UNL1       -0.0224
     16 C         140.3608  143.1174  168.4265 C.ar    1  UNL1       -0.0043
     17 C         140.3347  142.4439  169.7665 C.ar    1  UNL1       -0.0003
     18 C         140.0457  140.9751  169.8621 C.ar    1  UNL1       -0.0000
     19 C         139.7828  140.1798  168.6178 C.ar    1  UNL1       -0.0003
     20 C         139.8089  140.8534  167.2778 C.ar    1  UNL1       -0.0043
     21 C         143.4064  143.0317  156.0734 C.3     1  UNL1        0.0173
     22 C         143.8390  142.9744  157.5085 C.3     1  UNL1        0.0577
     23 C         145.1807  142.4066  157.8652 C.3     1  UNL1        0.0173
@<TRIPOS>BOND
     1    21    22    1
     2    22    23    1
     3    22     1    1
     4     1     2    1
     5     2     3    1
     6     3     4    1
     7     4     5   am
     8     5     6    2
     9     5     7   am
    10     7     8    1
    11     8     9    1
    12     9    10    1
    13    10    15    1
    14    15    16   ar
    15    16    17   ar
    16    17    18   ar
    17    18    19   ar
    18    19    20   ar
    19    10    11    1
    20    11    12    1
    21     4    13    1
    22    13    14    1
    23    14     1    1
    24    12     7    1
    25    20    15   ar
@<TRIPOS>MOLECULE
*****
 23 25 0 0 0
SMALL
GASTEIGER

@<TRIPOS>ATOM
      1 N         140.3187  144.7784  158.6854 N.3     1  UNL1       -0.2711
      2 C         139.3251  143.6955  158.3859 C.3     1  UNL1        0.0939
      3 C         138.8833  142.7613  159.4731 C.3     1  UNL1        0.1123
      4 N         139.4351  142.9101  160.8599 N.am    1  UNL1       -0.2612
      5 C         138.9933  141.9760  161.9472 C.2     1  UNL1        0.3072
      6 O         137.9996  140.8930  161.6477 O.2     1  UNL1       -0.2523
      7 N         139.5451  142.1248  163.3340 N.am    1  UNL1       -0.2640
      8 C         140.5388  143.2078  163.6336 C.3     1  UNL1        0.0953
      9 C         141.0906  143.3567  165.0204 C.3     1  UNL1        0.0260
     10 C         140.6488  142.4225  166.1077 C.3     1  UNL1        0.0257
     11 C         139.6552  141.3395  165.8082 C.3     1  UNL1        0.0260
     12 C         139.1033  141.1906  164.4213 C.3     1  UNL1        0.0953
     13 C         140.4287  143.9931  161.1595 C.3     1  UNL1        0.1123
     14 C         140.8705  144.9273  160.0722 C.3     1  UNL1        0.0939
     15 C         141.2007  142.5714  167.4946 C.ar    1  UNL1       -0.0224
     16 C         140.3500  143.1594  168.5812 C.ar    1  UNL1       -0.0043
     17 C         140.9019  143.3082  169.9679 C.ar    1  UNL1       -0.0003
     18 C         142.3044  142.8691  170.2682 C.ar    1  UNL1       -0.0000
     19 C         143.1551  142.2811  169.1816 C.ar    1  UNL1       -0.0003
     20 C         142.6032  142.1323  167.7948 C.ar    1  UNL1       -0.0043
     21 C         142.2211  145.8795  157.3004 C.3     1  UNL1        0.0173
     22 C         140.7605  145.7126  157.5982 C.3     1  UNL1        0.0577
     23 C         139.7417  146.4799  156.8087 C.3     1  UNL1        0.0173
@<TRIPOS>BOND
     1    21    22    1
     2    22    23    1
     3    22     1    1
     4     1     2    1
     5     2     3    1
     6     3     4    1
     7     4     5   am
     8     5     6    2
     9     5     7   am
    10     7     8    1
    11     8     9    1
    12     9    10    1
    13    10    15    1
    14    15    16   ar
    15    16    17   ar
    16    17    18   ar
    17    18    19   ar
    18    19    20   ar
    19    10    11    1
    20    11    12    1
    21     4    13    1
    22    13    14    1
    23    14     1    1
    24    12     7    1
    25    20    15   ar
@<TRIPOS>MOLECULE
*****
 23 25 0 0 0
SMALL
GASTEIGER

@<TRIPOS>ATOM
      1 N         138.5155  141.6454  159.2645 N.3     1  UNL1       -0.2711
      2 C         138.0675  140.2153  159.3275 C.3     1  UNL1        0.0939
      3 C         138.2232  139.4360  160.5997 C.3     1  UNL1        0.1123
      4 N         138.8270  140.0867  161.8088 N.am    1  UNL1       -0.2612
      5 C         138.9827  139.3074  163.0809 C.2     1  UNL1        0.3072
      6 O         138.5347  137.8773  163.1440 O.2     1  UNL1       -0.2523
      7 N         139.5865  139.9582  164.2900 N.am    1  UNL1       -0.2640
      8 C         140.0345  141.3883  164.2270 C.3     1  UNL1        0.0953
      9 C         140.6383  142.0391  165.4361 C.3     1  UNL1        0.0260
     10 C         140.7940  141.2598  166.7083 C.3     1  UNL1        0.0257
     11 C         140.3460  139.8296  166.7713 C.3     1  UNL1        0.0260
     12 C         139.7422  139.1788  165.5622 C.3     1  UNL1        0.0953
     13 C         139.2750  141.5169  161.7457 C.3     1  UNL1        0.1123
     14 C         139.1192  142.2962  160.4736 C.3     1  UNL1        0.0939
     15 C         141.3978  141.9106  167.9174 C.ar    1  UNL1       -0.0224
     16 C         142.8162  141.6099  168.3014 C.ar    1  UNL1       -0.0043
     17 C         143.4199  142.2607  169.5105 C.ar    1  UNL1       -0.0003
     18 C         142.6052  143.2122  170.3355 C.ar    1  UNL1       -0.0000
     19 C         141.1867  143.5130  169.9515 C.ar    1  UNL1       -0.0003
     20 C         140.5830  142.8621  168.7425 C.ar    1  UNL1       -0.0043
     21 C         139.2688  143.5831  157.7064 C.3     1  UNL1        0.0173
     22 C         138.3598  142.4248  157.9923 C.3     1  UNL1        0.0577
     23 C         137.2950  142.0458  157.0062 C.3     1  UNL1        0.0173
@<TRIPOS>BOND
     1    21    22    1
     2    22    23    1
     3    22     1    1
     4     1     2    1
     5     2     3    1
     6     3     4    1
     7     4     5   am
     8     5     6    2
     9     5     7   am
    10     7     8    1
    11     8     9    1
    12     9    10    1
    13    10    15    1
    14    15    16   ar
    15    16    17   ar
    16    17    18   ar
    17    18    19   ar
    18    19    20   ar
    19    10    11    1
    20    11    12    1
    21     4    13    1
    22    13    14    1
    23    14     1    1
    24    12     7    1
    25    20    15   ar
@<TRIPOS>MOLECULE
*****
 23 25 0 0 0
SMALL
GASTEIGER

@<TRIPOS>ATOM
      1 N         140.3708  139.2046  158.9645 N.3     1  UNL1       -0.2711
      2 C         139.2331  140.1077  158.5905 C.3     1  UNL1        0.0939
      3 C         138.7127  141.1076  159.5801 C.3     1  UNL1        0.1123
      4 N         139.3299  141.2043  160.9437 N.am    1  UNL1       -0.2612
      5 C         138.8095  142.2042  161.9334 C.2     1  UNL1        0.3072
      6 O         137.6718  143.1073  161.5594 O.2     1  UNL1       -0.2523
      7 N         139.4267  142.3009  163.2970 N.am    1  UNL1       -0.2640
      8 C         140.5645  141.3978  163.6711 C.3     1  UNL1        0.0953
      9 C         141.1818  141.4945  165.0347 C.3     1  UNL1        0.0260
     10 C         140.6614  142.4944  166.0244 C.3     1  UNL1        0.0257
     11 C         139.5236  143.3975  165.6504 C.3     1  UNL1        0.0260
     12 C         138.9063  143.3008  164.2867 C.3     1  UNL1        0.0953
     13 C         140.4677  140.3012  161.3177 C.3     1  UNL1        0.1123
     14 C         140.9881  139.3013  160.3281 C.3     1  UNL1        0.0939
     15 C         141.2787  142.5911  167.3881 C.ar    1  UNL1       -0.0224
     16 C         142.7004  142.1624  167.5999 C.ar    1  UNL1       -0.0043
     17 C         143.3177  142.2591  168.9635 C.ar    1  UNL1       -0.0003
     18 C         142.5132  142.7846  170.1154 C.ar    1  UNL1       -0.0000
     19 C         141.0915  143.2133  169.9036 C.ar    1  UNL1       -0.0003
     20 C         140.4743  143.1166  168.5399 C.ar    1  UNL1       -0.0043
     21 C         142.3457  137.8378  157.9737 C.3     1  UNL1        0.0173
     22 C         140.8913  138.2047  157.9748 C.3     1  UNL1        0.0577
     23 C         139.9573  137.5718  156.9863 C.3     1  UNL1        0.0173
@<TRIPOS>BOND
     1    21    22    1
     2    22    23    1
     3    22     1    1
     4     1     2    1
     5     2     3    1
     6     3     4    1
     7     4     5   am
     8     5     6    2
     9     5     7   am
    10     7     8    1
    11     8     9    1
    12     9    10    1
    13    10    15    1
    14    15    16   ar
    15    16    17   ar
    16    17    18   ar
    17    18    19   ar
    18    19    20   ar
    19    10    11    1
    20    11    12    1
    21     4    13    1
    22    13    14    1
    23    14     1    1
    24    12     7    1
    25    20    15   ar
@<TRIPOS>MOLECULE
*****
 23 25 0 0 0
SMALL
GASTEIGER

@<TRIPOS>ATOM
      1 N         138.5304  141.0906  158.6201 N.3     1  UNL1       -0.2711
      2 C         139.1222  139.7274  158.4168 C.3     1  UNL1        0.0939
      3 C         139.6773  138.9688  159.5857 C.3     1  UNL1        0.1123
      4 N         139.6408  139.5735  160.9579 N.am    1  UNL1       -0.2612
      5 C         140.1959  138.8149  162.1268 C.2     1  UNL1        0.3072
      6 O         140.7877  137.4517  161.9235 O.2     1  UNL1       -0.2523
      7 N         140.1593  139.4196  163.4990 N.am    1  UNL1       -0.2640
      8 C         139.5676  140.7829  163.7024 C.3     1  UNL1        0.0953
      9 C         139.5310  141.3876  165.0746 C.3     1  UNL1        0.0260
     10 C         140.0862  140.6290  166.2435 C.3     1  UNL1        0.0257
     11 C         140.6779  139.2658  166.0402 C.3     1  UNL1        0.0260
     12 C         140.7145  138.6610  164.6679 C.3     1  UNL1        0.0953
     13 C         139.0490  140.9367  161.1612 C.3     1  UNL1        0.1123
     14 C         138.4938  141.6953  159.9923 C.3     1  UNL1        0.0939
     15 C         140.0496  141.2337  167.6158 C.ar    1  UNL1       -0.0224
     16 C         140.5228  142.6412  167.8280 C.ar    1  UNL1       -0.0043
     17 C         140.4862  143.2458  169.2002 C.ar    1  UNL1       -0.0003
     18 C         139.9763  142.4431  170.3602 C.ar    1  UNL1       -0.0000
     19 C         139.5030  141.0356  170.1479 C.ar    1  UNL1       -0.0003
     20 C         139.5396  140.4310  168.7757 C.ar    1  UNL1       -0.0043
     21 C         136.7757  141.3255  156.7186 C.3     1  UNL1        0.0173
     22 C         137.9753  141.8492  157.4512 C.3     1  UNL1        0.0577
     23 C         138.6197  143.1315  157.0148 C.3     1  UNL1        0.0173
@<TRIPOS>BOND
     1    21    22    1
     2    22    23    1
     3    22     1    1
     4     1     2    1
     5     2     3    1
     6     3     4    1
     7     4     5   am
     8     5     6    2
     9     5     7   am
    10     7     8    1
    11     8     9    1
    12     9    10    1
    13    10    15    1
    14    15    16   ar
    15    16    17   ar
    16    17    18   ar
    17    18    19   ar
    18    19    20   ar
    19    10    11    1
    20    11    12    1
    21     4    13    1
    22    13    14    1
    23    14     1    1
    24    12     7    1
    25    20    15   ar
@<TRIPOS>MOLECULE
*****
 23 25 0 0 0
SMALL
GASTEIGER

@<TRIPOS>ATOM
      1 N         142.0331  143.9991  158.9661 N.3     1  UNL1       -0.2711
      2 C         143.3610  143.3135  158.8366 C.3     1  UNL1        0.0939
      3 C         143.9571  142.6043  160.0162 C.3     1  UNL1        0.1123
      4 N         143.2254  142.5807  161.3254 N.am    1  UNL1       -0.2612
      5 C         143.8216  141.8715  162.5051 C.2     1  UNL1        0.3072
      6 O         145.1494  141.1859  162.3756 O.2     1  UNL1       -0.2523
      7 N         143.0899  141.8479  163.8143 N.am    1  UNL1       -0.2640
      8 C         141.7620  142.5335  163.9439 C.3     1  UNL1        0.0953
      9 C         141.0303  142.5098  165.2530 C.3     1  UNL1        0.0260
     10 C         141.6264  141.8006  166.4327 C.3     1  UNL1        0.0257
     11 C         142.9542  141.1151  166.3032 C.3     1  UNL1        0.0260
     12 C         143.6860  141.1387  164.9940 C.3     1  UNL1        0.0953
     13 C         141.8976  143.2663  161.4549 C.3     1  UNL1        0.1123
     14 C         141.3015  143.9755  160.2752 C.3     1  UNL1        0.0939
     15 C         140.8946  141.7770  167.7420 C.ar    1  UNL1       -0.0224
     16 C         140.1457  140.5467  168.1605 C.ar    1  UNL1       -0.0043
     17 C         139.4140  140.5231  169.4697 C.ar    1  UNL1       -0.0003
     18 C         139.4312  141.7299  170.3603 C.ar    1  UNL1       -0.0000
     19 C         140.1801  142.9603  169.9418 C.ar    1  UNL1       -0.0003
     20 C         140.9118  142.9839  168.6326 C.ar    1  UNL1       -0.0043
     21 C         140.1463  144.2250  157.1944 C.3     1  UNL1        0.0173
     22 C         141.4370  144.7083  157.7864 C.3     1  UNL1        0.0577
     23 C         142.1316  145.9008  157.1986 C.3     1  UNL1        0.0173
@<TRIPOS>BOND
     1    21    22    1
     2    22    23    1
     3    22     1    1
     4     1     2    1
     5     2     3    1
     6     3     4    1
     7     4     5   am
     8     5     6    2
     9     5     7   am
    10     7     8    1
    11     8     9    1
    12     9    10    1
    13    10    15    1
    14    15    16   ar
    15    16    17   ar
    16    17    18   ar
    17    18    19   ar
    18    19    20   ar
    19    10    11    1
    20    11    12    1
    21     4    13    1
    22    13    14    1
    23    14     1    1
    24    12     7    1
    25    20    15   ar
@<TRIPOS>MOLECULE
*****
 23 25 0 0 0
SMALL
GASTEIGER

@<TRIPOS>ATOM
      1 N         142.2501  139.5939  158.9173 N.3     1  UNL1       -0.2711
      2 C         141.0549  138.7369  158.6222 C.3     1  UNL1        0.0939
      3 C         140.0391  138.4720  159.6936 C.3     1  UNL1        0.1123
      4 N         140.2184  139.0641  161.0601 N.am    1  UNL1       -0.2612
      5 C         139.2025  138.7992  162.1314 C.2     1  UNL1        0.3072
      6 O         138.0074  137.9422  161.8364 O.2     1  UNL1       -0.2523
      7 N         139.3818  139.3913  163.4979 N.am    1  UNL1       -0.2640
      8 C         140.5770  140.2484  163.7930 C.3     1  UNL1        0.0953
      9 C         140.7563  140.8405  165.1594 C.3     1  UNL1        0.0260
     10 C         139.7404  140.5756  166.2308 C.3     1  UNL1        0.0257
     11 C         138.5453  139.7186  165.9358 C.3     1  UNL1        0.0260
     12 C         138.3659  139.1264  164.5693 C.3     1  UNL1        0.0953
     13 C         141.4135  139.9211  161.3551 C.3     1  UNL1        0.1123
     14 C         142.4294  140.1860  160.2837 C.3     1  UNL1        0.0939
     15 C         139.9197  141.1678  167.5973 C.ar    1  UNL1       -0.0224
     16 C         139.5275  140.3814  168.8129 C.ar    1  UNL1       -0.0043
     17 C         139.7068  140.9735  170.1793 C.ar    1  UNL1       -0.0003
     18 C         140.2784  142.3521  170.3301 C.ar    1  UNL1       -0.0000
     19 C         140.6707  143.1385  169.1146 C.ar    1  UNL1       -0.0003
     20 C         140.4913  142.5464  167.7482 C.ar    1  UNL1       -0.0043
     21 C         144.2729  140.9565  158.0221 C.3     1  UNL1        0.0173
     22 C         143.2659  139.8588  157.8459 C.3     1  UNL1        0.0577
     23 C         143.2748  139.0260  156.5984 C.3     1  UNL1        0.0173
@<TRIPOS>BOND
     1    21    22    1
     2    22    23    1
     3    22     1    1
     4     1     2    1
     5     2     3    1
     6     3     4    1
     7     4     5   am
     8     5     6    2
     9     5     7   am
    10     7     8    1
    11     8     9    1
    12     9    10    1
    13    10    15    1
    14    15    16   ar
    15    16    17   ar
    16    17    18   ar
    17    18    19   ar
    18    19    20   ar
    19    10    11    1
    20    11    12    1
    21     4    13    1
    22    13    14    1
    23    14     1    1
    24    12     7    1
    25    20    15   ar
@<TRIPOS>MOLECULE
*****
 23 25 0 0 0
SMALL
GASTEIGER

@<TRIPOS>ATOM
      1 N         143.6959  140.1985  158.8164 N.3     1  UNL1       -0.2711
      2 C         143.0562  138.8421  158.7858 C.3     1  UNL1        0.0939
      3 C         142.4110  138.2890  160.0218 C.3     1  UNL1        0.1123
      4 N         142.4056  139.0923  161.2886 N.am    1  UNL1       -0.2612
      5 C         141.7604  138.5392  162.5246 C.2     1  UNL1        0.3072
      6 O         141.1207  137.1829  162.4940 O.2     1  UNL1       -0.2523
      7 N         141.7550  139.3425  163.7914 N.am    1  UNL1       -0.2640
      8 C         142.3947  140.6989  163.8221 C.3     1  UNL1        0.0953
      9 C         142.3893  141.5022  165.0888 C.3     1  UNL1        0.0260
     10 C         141.7441  140.9491  166.3249 C.3     1  UNL1        0.0257
     11 C         141.1044  139.5928  166.2942 C.3     1  UNL1        0.0260
     12 C         141.1098  138.7894  165.0274 C.3     1  UNL1        0.0953
     13 C         143.0453  140.4486  161.3192 C.3     1  UNL1        0.1123
     14 C         143.6905  141.0017  160.0832 C.3     1  UNL1        0.0939
     15 C         141.7387  141.7525  167.5917 C.ar    1  UNL1       -0.0224
     16 C         140.5054  142.5030  167.9985 C.ar    1  UNL1       -0.0043
     17 C         140.5000  143.3063  169.2652 C.ar    1  UNL1       -0.0003
     18 C         141.7280  143.3591  170.1251 C.ar    1  UNL1       -0.0000
     19 C         142.9613  142.6085  169.7183 C.ar    1  UNL1       -0.0003
     20 C         142.9666  141.8052  168.4515 C.ar    1  UNL1       -0.0043
     21 C         144.3174  139.9626  156.3049 C.3     1  UNL1        0.0173
     22 C         144.3411  140.7515  157.5804 C.3     1  UNL1        0.0577
     23 C         145.0099  142.0936  157.6198 C.3     1  UNL1        0.0173
@<TRIPOS>BOND
     1    21    22    1
     2    22    23    1
     3    22     1    1
     4     1     2    1
     5     2     3    1
     6     3     4    1
     7     4     5   am
     8     5     6    2
     9     5     7   am
    10     7     8    1
    11     8     9    1
    12     9    10    1
    13    10    15    1
    14    15    16   ar
    15    16    17   ar
    16    17    18   ar
    17    18    19   ar
    18    19    20   ar
    19    10    11    1
    20    11    12    1
    21     4    13    1
    22    13    14    1
    23    14     1    1
    24    12     7    1
    25    20    15   ar
@<TRIPOS>MOLECULE
*****
 23 25 0 0 0
SMALL
GASTEIGER

@<TRIPOS>ATOM
      1 N         142.9355  137.8684  157.5947 N.3     1  UNL1       -0.2711
      2 C         143.4611  139.1344  156.9857 C.3     1  UNL1        0.0939
      3 C         143.7876  140.3084  157.8604 C.3     1  UNL1        0.1123
      4 N         143.5883  140.2164  159.3443 N.am    1  UNL1       -0.2612
      5 C         143.9148  141.3904  160.2190 C.2     1  UNL1        0.3072
      6 O         144.4404  142.6563  159.6100 O.2     1  UNL1       -0.2523
      7 N         143.7156  141.2984  161.7029 N.am    1  UNL1       -0.2640
      8 C         143.1899  140.0324  162.3120 C.3     1  UNL1        0.0953
      9 C         142.9907  139.9404  163.7958 C.3     1  UNL1        0.0260
     10 C         143.3171  141.1144  164.6706 C.3     1  UNL1        0.0257
     11 C         143.8428  142.3804  164.0615 C.3     1  UNL1        0.0260
     12 C         144.0420  142.4724  162.5776 C.3     1  UNL1        0.0953
     13 C         143.0627  138.9504  159.9533 C.3     1  UNL1        0.1123
     14 C         142.7363  137.7765  159.0786 C.3     1  UNL1        0.0939
     15 C         143.1179  141.0224  166.1545 C.ar    1  UNL1       -0.0224
     16 C         143.2255  142.2543  167.0035 C.ar    1  UNL1       -0.0043
     17 C         143.0263  142.1622  168.4873 C.ar    1  UNL1       -0.0003
     18 C         142.7194  140.8382  169.1222 C.ar    1  UNL1       -0.0000
     19 C         142.6118  139.6064  168.2732 C.ar    1  UNL1       -0.0003
     20 C         142.8110  139.6984  166.7893 C.ar    1  UNL1       -0.0043
     21 C         143.6501  135.6495  156.4478 C.3     1  UNL1        0.0173
     22 C         142.6090  136.6945  156.7200 C.3     1  UNL1        0.0577
     23 C         141.2415  136.5655  156.1174 C.3     1  UNL1        0.0173
@<TRIPOS>BOND
     1    21    22    1
     2    22    23    1
     3    22     1    1
     4     1     2    1
     5     2     3    1
     6     3     4    1
     7     4     5   am
     8     5     6    2
     9     5     7   am
    10     7     8    1
    11     8     9    1
    12     9    10    1
    13    10    15    1
    14    15    16   ar
    15    16    17   ar
    16    17    18   ar
    17    18    19   ar
    18    19    20   ar
    19    10    11    1
    20    11    12    1
    21     4    13    1
    22    13    14    1
    23    14     1    1
    24    12     7    1
    25    20    15   ar
