@<TRIPOS>MOLECULE
*****
 38 43 0 0 0
SMALL
GASTEIGER

@<TRIPOS>ATOM
      1 C         139.7048  140.4097  168.2163 C.3     1  UNL1        0.0294
      2 C         138.8849  139.4848  167.3663 C.3     1  UNL1        0.0730
      3 C         138.2863  140.9444  157.8032 C.ar    1  UNL1        0.2057
      4 N         138.3167  142.0108  158.8577 N.ar    1  UNL1       -0.2121
      5 C         138.4140  141.3379  160.1947 C.ar    1  UNL1        0.1182
      6 C         138.4794  141.8835  161.5905 C.ar    1  UNL1        0.0178
      7 C         138.5745  140.9466  162.7582 C.ar    1  UNL1       -0.0230
      8 C         138.6042  139.4645  162.5301 C.ar    1  UNL1       -0.0216
      9 C         138.5389  138.9189  161.1344 C.ar    1  UNL1        0.0346
     10 C         138.4438  139.8556  159.9667 C.ar    1  UNL1        0.1640
     11 O         138.3649  139.6125  158.4886 O.2     1  UNL1       -0.4384
     12 C         138.6952  138.3636  163.5450 C.3     1  UNL1        0.0434
     13 C         138.7789  138.4733  165.0387 C.3     1  UNL1        0.0768
     14 N         138.7922  139.7107  165.8863 N.3     1  UNL1       -0.2720
     15 C         138.7253  141.1442  165.4497 C.3     1  UNL1        0.0768
     16 C         138.6283  141.6943  164.0575 C.3     1  UNL1        0.0434
     17 C         138.1937  141.1703  156.3232 C.3     1  UNL1        0.0853
     18 C         135.6534  141.2837  155.7908 C.3     1  UNL1        0.0005
     19 C         137.0184  141.9041  155.7486 C.3     1  UNL1        0.0097
     20 C         140.6603  139.8494  169.2278 C.3     1  UNL1        0.0666
     21 S         142.1360  139.8756  168.9606 S.3     1  UNL1       -0.0756
     22 C         142.7156  140.9207  168.0540 C.ar    1  UNL1        0.1932
     23 N         143.2678  142.2489  168.4793 N.ar    1  UNL1       -0.1221
     24 N         143.7382  142.9701  167.2511 N.ar    1  UNL1       -0.1282
     25 C         143.4767  142.0877  166.0667 C.ar    1  UNL1        0.1669
     26 N         142.8446  140.8210  166.5629 N.ar    1  UNL1       -0.2884
     27 C         142.4168  139.6588  165.7165 C.3     1  UNL1        0.1340
     28 C         143.7918  142.4144  164.6370 C.ar    1  UNL1        0.0374
     29 C         145.0306  141.8617  163.9968 C.ar    1  UNL1        0.0031
     30 C         145.3458  142.1885  162.5672 C.ar    1  UNL1        0.0016
     31 C         144.4222  143.0680  161.7777 C.ar    1  UNL1        0.0191
     32 C         143.1833  143.6207  162.4179 C.ar    1  UNL1        0.0810
     33 N         142.2596  144.5002  161.6284 N.ar    1  UNL1       -0.2497
     34 C         141.0208  145.0530  162.2685 C.ar    1  UNL1        0.0593
     35 C         140.0971  145.9324  161.4791 C.3     1  UNL1        0.0521
     36 C         140.7057  144.7261  163.6982 C.ar    1  UNL1        0.0147
     37 C         141.6294  143.8466  164.4877 C.ar    1  UNL1        0.0028
     38 C         142.8682  143.2939  163.8475 C.ar    1  UNL1        0.0206
@<TRIPOS>BOND
     1    18    19    1
     2    19    17    1
     3    17     3    1
     4     3     4   ar
     5     4     5   ar
     6     5     6   ar
     7     6     7   ar
     8     7     8   ar
     9     8     9   ar
    10     9    10   ar
    11    10    11   ar
    12     8    12    1
    13    12    13    1
    14    13    14    1
    15    14     2    1
    16     2     1    1
    17     1    20    1
    18    20    21    1
    19    21    22    1
    20    22    23   ar
    21    23    24   ar
    22    24    25   ar
    23    25    28    1
    24    28    29   ar
    25    29    30   ar
    26    30    31   ar
    27    31    32   ar
    28    32    33   ar
    29    33    34   ar
    30    34    35    1
    31    34    36   ar
    32    36    37   ar
    33    37    38   ar
    34    25    26   ar
    35    26    27    1
    36    14    15    1
    37    15    16    1
    38    11     3   ar
    39    26    22   ar
    40    10     5   ar
    41    38    28   ar
    42    16     7    1
    43    38    32   ar
@<TRIPOS>MOLECULE
*****
 38 43 0 0 0
SMALL
GASTEIGER

@<TRIPOS>ATOM
      1 C         140.2848  138.8327  158.7753 C.3     1  UNL1        0.0294
      2 C         139.6436  137.9420  159.7978 C.3     1  UNL1        0.0730
      3 C         140.4309  140.0383  169.2279 C.ar    1  UNL1        0.2057
      4 N         139.1526  139.9498  168.4481 N.ar    1  UNL1       -0.2121
      5 C         139.4976  139.6022  167.0303 C.ar    1  UNL1        0.1182
      6 C         138.6463  139.3844  165.8146 C.ar    1  UNL1        0.0178
      7 C         139.2866  139.0403  164.5025 C.ar    1  UNL1       -0.0230
      8 C         140.7781  138.9140  164.4061 C.ar    1  UNL1       -0.0216
      9 C         141.6294  139.1318  165.6217 C.ar    1  UNL1        0.0346
     10 C         140.9892  139.4759  166.9338 C.ar    1  UNL1        0.1640
     11 O         141.5659  139.7455  168.2920 O.2     1  UNL1       -0.4384
     12 C         141.6128  138.5816  163.2049 C.3     1  UNL1        0.0434
     13 C         141.1621  138.2934  161.8035 C.3     1  UNL1        0.0768
     14 N         139.7654  138.2664  161.2573 N.3     1  UNL1       -0.2720
     15 C         138.4744  138.5210  161.9773 C.3     1  UNL1        0.0768
     16 C         138.2613  138.8654  163.4216 C.3     1  UNL1        0.0434
     17 C         140.5528  140.3628  170.6873 C.3     1  UNL1        0.0853
     18 C         140.3876  142.9002  170.1543 C.3     1  UNL1        0.0005
     19 C         140.6424  141.7923  171.1329 C.3     1  UNL1        0.0097
     20 C         141.5534  138.4055  158.0984 C.3     1  UNL1        0.0666
     21 S         142.7671  139.2850  158.1560 S.3     1  UNL1       -0.0756
     22 C         143.1516  139.9491  159.4449 C.ar    1  UNL1        0.1932
     23 N         144.0743  139.3870  160.4854 N.ar    1  UNL1       -0.1221
     24 N         144.1739  140.3824  161.6031 N.ar    1  UNL1       -0.1282
     25 C         143.3127  141.5597  161.2534 C.ar    1  UNL1        0.1669
     26 N         142.6809  141.2919  159.9195 N.ar    1  UNL1       -0.2884
     27 C         141.7430  142.2064  159.1886 C.3     1  UNL1        0.1340
     28 C         143.1175  142.7889  162.0905 C.ar    1  UNL1        0.0374
     29 C         144.2522  143.7500  162.2877 C.ar    1  UNL1        0.0031
     30 C         144.0571  144.9793  163.1248 C.ar    1  UNL1        0.0016
     31 C         142.7273  145.2476  163.7648 C.ar    1  UNL1        0.0191
     32 C         141.5926  144.2865  163.5676 C.ar    1  UNL1        0.0810
     33 N         140.2628  144.5547  164.2076 N.ar    1  UNL1       -0.2497
     34 C         139.1280  143.5937  164.0105 C.ar    1  UNL1        0.0593
     35 C         137.7982  143.8620  164.6504 C.3     1  UNL1        0.0521
     36 C         139.3232  142.3644  163.1733 C.ar    1  UNL1        0.0147
     37 C         140.6531  142.0962  162.5333 C.ar    1  UNL1        0.0028
     38 C         141.7878  143.0572  162.7305 C.ar    1  UNL1        0.0206
@<TRIPOS>BOND
     1    18    19    1
     2    19    17    1
     3    17     3    1
     4     3     4   ar
     5     4     5   ar
     6     5     6   ar
     7     6     7   ar
     8     7     8   ar
     9     8     9   ar
    10     9    10   ar
    11    10    11   ar
    12     8    12    1
    13    12    13    1
    14    13    14    1
    15    14     2    1
    16     2     1    1
    17     1    20    1
    18    20    21    1
    19    21    22    1
    20    22    23   ar
    21    23    24   ar
    22    24    25   ar
    23    25    28    1
    24    28    29   ar
    25    29    30   ar
    26    30    31   ar
    27    31    32   ar
    28    32    33   ar
    29    33    34   ar
    30    34    35    1
    31    34    36   ar
    32    36    37   ar
    33    37    38   ar
    34    25    26   ar
    35    26    27    1
    36    14    15    1
    37    15    16    1
    38    11     3   ar
    39    26    22   ar
    40    10     5   ar
    41    38    28   ar
    42    16     7    1
    43    38    32   ar
@<TRIPOS>MOLECULE
*****
 38 43 0 0 0
SMALL
GASTEIGER

@<TRIPOS>ATOM
      1 C         141.2105  144.7617  158.4077 C.3     1  UNL1        0.0294
      2 C         141.1200  145.4991  159.7109 C.3     1  UNL1        0.0730
      3 C         140.9077  140.5790  168.0588 C.ar    1  UNL1        0.2057
      4 N         141.8225  140.3112  166.9006 N.ar    1  UNL1       -0.2121
      5 C         141.5117  141.3086  165.8243 C.ar    1  UNL1        0.1182
      6 C         142.0936  141.5259  164.4589 C.ar    1  UNL1        0.0178
      7 C         141.5686  142.6275  163.5865 C.ar    1  UNL1       -0.0230
      8 C         140.4618  143.5117  164.0795 C.ar    1  UNL1       -0.0216
      9 C         139.8799  143.2944  165.4448 C.ar    1  UNL1        0.0346
     10 C         140.4048  142.1929  166.3172 C.ar    1  UNL1        0.1640
     11 O         140.0316  141.7419  167.6983 O.2     1  UNL1       -0.4384
     12 C         139.7973  144.6584  163.3768 C.3     1  UNL1        0.0434
     13 C         140.0757  145.2039  162.0074 C.3     1  UNL1        0.0768
     14 N         141.0872  144.7376  161.0028 N.3     1  UNL1       -0.2720
     15 C         142.0702  143.6106  161.1192 C.3     1  UNL1        0.0768
     16 C         142.2844  142.6715  162.2690 C.3     1  UNL1        0.0434
     17 C         140.8748  139.8176  169.3508 C.3     1  UNL1        0.0853
     18 C         143.1740  140.5003  170.3494 C.3     1  UNL1        0.0005
     19 C         142.1569  139.4439  170.0340 C.3     1  UNL1        0.0097
     20 C         139.9792  144.5534  157.5767 C.3     1  UNL1        0.0666
     21 S         139.2306  143.2561  157.6573 S.3     1  UNL1       -0.0756
     22 C         139.1206  142.5338  158.9673 C.ar    1  UNL1        0.1932
     23 N         138.1788  142.8726  160.0845 N.ar    1  UNL1       -0.1221
     24 N         138.4092  141.8940  161.1978 N.ar    1  UNL1       -0.1282
     25 C         139.4934  140.9505  160.7686 C.ar    1  UNL1        0.1669
     26 N         139.9331  141.3458  159.3900 N.ar    1  UNL1       -0.2884
     27 C         140.9982  140.6716  158.5770 C.3     1  UNL1        0.1340
     28 C         140.0416  139.8115  161.5761 C.ar    1  UNL1        0.0374
     29 C         141.1250  138.9429  161.0087 C.ar    1  UNL1        0.0031
     30 C         141.6733  137.8039  161.8162 C.ar    1  UNL1        0.0016
     31 C         141.1382  137.5334  163.1911 C.ar    1  UNL1        0.0191
     32 C         140.0548  138.4019  163.7585 C.ar    1  UNL1        0.0810
     33 N         139.5197  138.1315  165.1334 N.ar    1  UNL1       -0.2497
     34 C         138.4363  139.0000  165.7010 C.ar    1  UNL1        0.0593
     35 C         137.9012  138.7295  167.0759 C.3     1  UNL1        0.0521
     36 C         137.8881  140.1390  164.8934 C.ar    1  UNL1        0.0147
     37 C         138.4232  140.4095  163.5184 C.ar    1  UNL1        0.0028
     38 C         139.5066  139.5409  162.9510 C.ar    1  UNL1        0.0206
@<TRIPOS>BOND
     1    18    19    1
     2    19    17    1
     3    17     3    1
     4     3     4   ar
     5     4     5   ar
     6     5     6   ar
     7     6     7   ar
     8     7     8   ar
     9     8     9   ar
    10     9    10   ar
    11    10    11   ar
    12     8    12    1
    13    12    13    1
    14    13    14    1
    15    14     2    1
    16     2     1    1
    17     1    20    1
    18    20    21    1
    19    21    22    1
    20    22    23   ar
    21    23    24   ar
    22    24    25   ar
    23    25    28    1
    24    28    29   ar
    25    29    30   ar
    26    30    31   ar
    27    31    32   ar
    28    32    33   ar
    29    33    34   ar
    30    34    35    1
    31    34    36   ar
    32    36    37   ar
    33    37    38   ar
    34    25    26   ar
    35    26    27    1
    36    14    15    1
    37    15    16    1
    38    11     3   ar
    39    26    22   ar
    40    10     5   ar
    41    38    28   ar
    42    16     7    1
    43    38    32   ar
@<TRIPOS>MOLECULE
*****
 38 43 0 0 0
SMALL
GASTEIGER

@<TRIPOS>ATOM
      1 C         139.6443  139.8393  157.9704 C.3     1  UNL1        0.0294
      2 C         139.2383  138.8129  158.9863 C.3     1  UNL1        0.0730
      3 C         139.7717  140.8765  168.4413 C.ar    1  UNL1        0.2057
      4 N         139.3370  139.5695  167.8472 N.ar    1  UNL1       -0.2121
      5 C         139.4060  139.6933  166.3540 C.ar    1  UNL1        0.1182
      6 C         139.0958  138.7250  165.2512 C.ar    1  UNL1        0.0178
      7 C         139.2630  139.1402  163.8194 C.ar    1  UNL1       -0.0230
      8 C         139.7404  140.5236  163.4906 C.ar    1  UNL1       -0.0216
      9 C         140.0506  141.4919  164.5934 C.ar    1  UNL1        0.0346
     10 C         139.8834  141.0768  166.0251 C.ar    1  UNL1        0.1640
     11 O         140.1094  141.8080  167.3151 O.2     1  UNL1       -0.4384
     12 C         139.9735  141.1365  162.1415 C.3     1  UNL1        0.0434
     13 C         139.7868  140.5172  160.7880 C.3     1  UNL1        0.0768
     14 N         139.3209  139.1323  160.4495 N.3     1  UNL1       -0.2720
     15 C         138.9265  138.0244  161.3807 C.3     1  UNL1        0.0768
     16 C         138.9008  138.0279  162.8805 C.3     1  UNL1        0.0434
     17 C         139.8543  141.1959  169.9046 C.3     1  UNL1        0.0853
     18 C         140.7085  143.6490  169.9537 C.3     1  UNL1        0.0005
     19 C         139.7072  142.6135  170.3723 C.3     1  UNL1        0.0097
     20 C         140.6577  139.4947  156.9196 C.3     1  UNL1        0.0666
     21 S         142.0613  140.0113  157.0332 S.3     1  UNL1       -0.0756
     22 C         142.7593  140.0006  158.3609 C.ar    1  UNL1        0.1932
     23 N         143.5842  138.8766  158.9142 N.ar    1  UNL1       -0.1221
     24 N         144.0897  139.2933  160.2636 N.ar    1  UNL1       -0.1282
     25 C         143.5771  140.6747  160.5443 C.ar    1  UNL1        0.1669
     26 N         142.7548  141.1119  159.3683 N.ar    1  UNL1       -0.2884
     27 C         142.0516  142.4291  159.2250 C.3     1  UNL1        0.1340
     28 C         143.8404  141.4780  161.7833 C.ar    1  UNL1        0.0374
     29 C         144.3331  142.8903  161.6710 C.ar    1  UNL1        0.0031
     30 C         144.5965  143.6936  162.9100 C.ar    1  UNL1        0.0016
     31 C         144.3672  143.0847  164.2615 C.ar    1  UNL1        0.0191
     32 C         143.8745  141.6724  164.3739 C.ar    1  UNL1        0.0810
     33 N         143.6452  141.0634  165.7254 N.ar    1  UNL1       -0.2497
     34 C         143.1525  139.6510  165.8379 C.ar    1  UNL1        0.0593
     35 C         142.9232  139.0420  167.1893 C.3     1  UNL1        0.0521
     36 C         142.8892  138.8478  164.5987 C.ar    1  UNL1        0.0147
     37 C         143.1185  139.4568  163.2472 C.ar    1  UNL1        0.0028
     38 C         143.6112  140.8691  163.1348 C.ar    1  UNL1        0.0206
@<TRIPOS>BOND
     1    18    19    1
     2    19    17    1
     3    17     3    1
     4     3     4   ar
     5     4     5   ar
     6     5     6   ar
     7     6     7   ar
     8     7     8   ar
     9     8     9   ar
    10     9    10   ar
    11    10    11   ar
    12     8    12    1
    13    12    13    1
    14    13    14    1
    15    14     2    1
    16     2     1    1
    17     1    20    1
    18    20    21    1
    19    21    22    1
    20    22    23   ar
    21    23    24   ar
    22    24    25   ar
    23    25    28    1
    24    28    29   ar
    25    29    30   ar
    26    30    31   ar
    27    31    32   ar
    28    32    33   ar
    29    33    34   ar
    30    34    35    1
    31    34    36   ar
    32    36    37   ar
    33    37    38   ar
    34    25    26   ar
    35    26    27    1
    36    14    15    1
    37    15    16    1
    38    11     3   ar
    39    26    22   ar
    40    10     5   ar
    41    38    28   ar
    42    16     7    1
    43    38    32   ar
@<TRIPOS>MOLECULE
*****
 38 43 0 0 0
SMALL
GASTEIGER

@<TRIPOS>ATOM
      1 C         144.3352  142.0048  158.4392 C.3     1  UNL1        0.0294
      2 C         144.9459  142.6594  159.6428 C.3     1  UNL1        0.0730
      3 C         142.0858  140.0805  168.5371 C.ar    1  UNL1        0.2057
      4 N         142.1391  139.1861  167.3341 N.ar    1  UNL1       -0.2121
      5 C         142.6391  139.9969  166.1755 C.ar    1  UNL1        0.1182
      6 C         142.8945  139.6448  164.7399 C.ar    1  UNL1        0.0178
      7 C         143.4058  140.6883  163.7912 C.ar    1  UNL1       -0.0230
      8 C         143.6615  142.0837  164.2782 C.ar    1  UNL1       -0.0216
      9 C         143.4061  142.4359  165.7136 C.ar    1  UNL1        0.0346
     10 C         142.8949  141.3925  166.6623 C.ar    1  UNL1        0.1640
     11 O         142.5529  141.4441  168.1219 O.2     1  UNL1       -0.4384
     12 C         144.1671  143.2659  163.5055 C.3     1  UNL1        0.0434
     13 C         144.5417  143.3444  162.0551 C.3     1  UNL1        0.0768
     14 N         144.5033  142.2603  161.0193 N.3     1  UNL1       -0.2720
     15 C         144.0808  140.8298  161.1778 C.3     1  UNL1        0.0768
     16 C         143.5923  140.1301  162.4115 C.3     1  UNL1        0.0434
     17 C         141.6431  139.6814  169.9136 C.3     1  UNL1        0.0853
     18 C         139.1668  140.3837  169.5614 C.3     1  UNL1        0.0005
     19 C         140.3495  140.2024  170.4660 C.3     1  UNL1        0.0097
     20 C         143.4436  142.7944  157.5273 C.3     1  UNL1        0.0666
     21 S         141.9635  142.8259  157.7682 S.3     1  UNL1       -0.0756
     22 C         141.4013  142.2955  159.0538 C.ar    1  UNL1        0.1932
     23 N         140.8910  140.9041  159.2852 N.ar    1  UNL1       -0.1221
     24 N         140.4251  140.8119  160.7081 N.ar    1  UNL1       -0.1282
     25 C         140.6475  142.1464  161.3559 C.ar    1  UNL1        0.1669
     26 N         141.2509  143.0633  160.3335 N.ar    1  UNL1       -0.2884
     27 C         141.6360  144.4964  160.5525 C.3     1  UNL1        0.1340
     28 C         140.3235  142.5016  162.7768 C.ar    1  UNL1        0.0374
     29 C         140.5501  143.8997  163.2707 C.ar    1  UNL1        0.0031
     30 C         140.2261  144.2549  164.6916 C.ar    1  UNL1        0.0016
     31 C         139.6754  143.2121  165.6185 C.ar    1  UNL1        0.0191
     32 C         139.4487  141.8140  165.1246 C.ar    1  UNL1        0.0810
     33 N         138.8980  140.7712  166.0514 N.ar    1  UNL1       -0.2497
     34 C         138.6713  139.3730  165.5575 C.ar    1  UNL1        0.0593
     35 C         138.1206  138.3302  166.4844 C.3     1  UNL1        0.0521
     36 C         138.9954  139.0179  164.1366 C.ar    1  UNL1        0.0147
     37 C         139.5461  140.0607  163.2098 C.ar    1  UNL1        0.0028
     38 C         139.7728  141.4588  163.7037 C.ar    1  UNL1        0.0206
@<TRIPOS>BOND
     1    18    19    1
     2    19    17    1
     3    17     3    1
     4     3     4   ar
     5     4     5   ar
     6     5     6   ar
     7     6     7   ar
     8     7     8   ar
     9     8     9   ar
    10     9    10   ar
    11    10    11   ar
    12     8    12    1
    13    12    13    1
    14    13    14    1
    15    14     2    1
    16     2     1    1
    17     1    20    1
    18    20    21    1
    19    21    22    1
    20    22    23   ar
    21    23    24   ar
    22    24    25   ar
    23    25    28    1
    24    28    29   ar
    25    29    30   ar
    26    30    31   ar
    27    31    32   ar
    28    32    33   ar
    29    33    34   ar
    30    34    35    1
    31    34    36   ar
    32    36    37   ar
    33    37    38   ar
    34    25    26   ar
    35    26    27    1
    36    14    15    1
    37    15    16    1
    38    11     3   ar
    39    26    22   ar
    40    10     5   ar
    41    38    28   ar
    42    16     7    1
    43    38    32   ar
@<TRIPOS>MOLECULE
*****
 38 43 0 0 0
SMALL
GASTEIGER

@<TRIPOS>ATOM
      1 C         141.3370  144.5676  158.3248 C.3     1  UNL1        0.0294
      2 C         140.8209  145.3532  159.4939 C.3     1  UNL1        0.0730
      3 C         141.6844  141.8111  168.4743 C.ar    1  UNL1        0.2057
      4 N         142.7567  141.8259  167.4254 N.ar    1  UNL1       -0.2121
      5 C         142.1900  142.4646  166.1922 C.ar    1  UNL1        0.1182
      6 C         142.7855  142.7494  164.8452 C.ar    1  UNL1        0.0178
      7 C         141.9585  143.4142  163.7849 C.ar    1  UNL1       -0.0230
      8 C         140.5361  143.7942  164.0716 C.ar    1  UNL1       -0.0216
      9 C         139.9406  143.5095  165.4186 C.ar    1  UNL1        0.0346
     10 C         140.7675  142.8447  166.4789 C.ar    1  UNL1        0.1640
     11 O         140.4551  142.4408  167.8893 O.2     1  UNL1       -0.4384
     12 C         139.5447  144.4598  163.1638 C.3     1  UNL1        0.0434
     13 C         139.7310  144.9096  161.7449 C.3     1  UNL1        0.0768
     14 N         140.9545  144.8051  160.8837 N.3     1  UNL1       -0.2720
     15 C         142.2941  144.2248  161.2284 C.3     1  UNL1        0.0768
     16 C         142.7410  143.6058  162.5196 C.3     1  UNL1        0.0434
     17 C         141.8180  141.2629  169.8641 C.3     1  UNL1        0.0853
     18 C         142.5470  138.7722  169.9862 C.3     1  UNL1        0.0005
     19 C         141.4896  139.8251  170.1381 C.3     1  UNL1        0.0097
     20 C         140.3855  143.7887  157.4658 C.3     1  UNL1        0.0666
     21 S         140.2804  142.3006  157.6219 S.3     1  UNL1       -0.0756
     22 C         140.6601  141.6541  158.9211 C.ar    1  UNL1        0.1932
     23 N         141.9874  141.0335  159.2423 N.ar    1  UNL1       -0.1221
     24 N         141.9269  140.5105  160.6468 N.ar    1  UNL1       -0.1282
     25 C         140.5621  140.8080  161.1937 C.ar    1  UNL1        0.1669
     26 N         139.7792  141.5148  160.1271 N.ar    1  UNL1       -0.2884
     27 C         138.3640  141.9974  160.2458 C.3     1  UNL1        0.1340
     28 C         140.0672  140.4597  162.5662 C.ar    1  UNL1        0.0374
     29 C         138.6373  140.7212  162.9366 C.ar    1  UNL1        0.0031
     30 C         138.1424  140.3730  164.3091 C.ar    1  UNL1        0.0016
     31 C         139.0771  139.7633  165.3112 C.ar    1  UNL1        0.0191
     32 C         140.5070  139.5018  164.9408 C.ar    1  UNL1        0.0810
     33 N         141.4419  138.8921  165.9429 N.ar    1  UNL1       -0.2497
     34 C         142.8717  138.6305  165.5726 C.ar    1  UNL1        0.0593
     35 C         143.8066  138.0208  166.5747 C.3     1  UNL1        0.0521
     36 C         143.3667  138.9788  164.2000 C.ar    1  UNL1        0.0147
     37 C         142.4318  139.5885  163.1979 C.ar    1  UNL1        0.0028
     38 C         141.0020  139.8500  163.5683 C.ar    1  UNL1        0.0206
@<TRIPOS>BOND
     1    18    19    1
     2    19    17    1
     3    17     3    1
     4     3     4   ar
     5     4     5   ar
     6     5     6   ar
     7     6     7   ar
     8     7     8   ar
     9     8     9   ar
    10     9    10   ar
    11    10    11   ar
    12     8    12    1
    13    12    13    1
    14    13    14    1
    15    14     2    1
    16     2     1    1
    17     1    20    1
    18    20    21    1
    19    21    22    1
    20    22    23   ar
    21    23    24   ar
    22    24    25   ar
    23    25    28    1
    24    28    29   ar
    25    29    30   ar
    26    30    31   ar
    27    31    32   ar
    28    32    33   ar
    29    33    34   ar
    30    34    35    1
    31    34    36   ar
    32    36    37   ar
    33    37    38   ar
    34    25    26   ar
    35    26    27    1
    36    14    15    1
    37    15    16    1
    38    11     3   ar
    39    26    22   ar
    40    10     5   ar
    41    38    28   ar
    42    16     7    1
    43    38    32   ar
@<TRIPOS>MOLECULE
*****
 38 43 0 0 0
SMALL
GASTEIGER

@<TRIPOS>ATOM
      1 C         141.7268  139.4948  170.0630 C.3     1  UNL1        0.0294
      2 C         142.8111  140.4521  169.6651 C.3     1  UNL1        0.0730
      3 C         144.4393  142.3069  160.2923 C.ar    1  UNL1        0.2057
      4 N         144.4647  143.3102  161.4071 N.ar    1  UNL1       -0.2121
      5 C         144.1588  142.5895  162.6865 C.ar    1  UNL1        0.1182
      6 C         144.0478  143.0654  164.1047 C.ar    1  UNL1        0.0178
      7 C         143.7223  142.0923  165.1990 C.ar    1  UNL1       -0.0230
      8 C         143.5078  140.6436  164.8750 C.ar    1  UNL1       -0.0216
      9 C         143.6188  140.1677  163.4568 C.ar    1  UNL1        0.0346
     10 C         143.9443  141.1407  162.3625 C.ar    1  UNL1        0.1640
     11 O         144.1176  140.9661  160.8829 O.2     1  UNL1       -0.4384
     12 C         143.1770  139.5158  165.8071 C.3     1  UNL1        0.0434
     13 C         142.9791  139.5584  167.2934 C.3     1  UNL1        0.0768
     14 N         143.0630  140.7391  168.2146 N.3     1  UNL1       -0.2720
     15 C         143.3656  142.1690  167.8771 C.3     1  UNL1        0.0768
     16 C         143.6590  142.7713  166.5350 C.3     1  UNL1        0.0434
     17 C         144.6913  142.5939  158.8418 C.3     1  UNL1        0.0853
     18 C         142.4515  143.8676  158.5085 C.3     1  UNL1        0.0005
     19 C         143.5603  143.0227  157.9546 C.3     1  UNL1        0.0097
     20 C         140.4871  140.0037  170.7369 C.3     1  UNL1        0.0666
     21 S         139.2334  140.2143  169.9409 S.3     1  UNL1       -0.0756
     22 C         139.3063  140.3504  168.4489 C.ar    1  UNL1        0.1932
     23 N         138.9496  139.2912  167.4484 N.ar    1  UNL1       -0.1221
     24 N         139.1716  139.8557  166.0766 N.ar    1  UNL1       -0.1282
     25 C         139.6654  141.2639  166.2292 C.ar    1  UNL1        0.1669
     26 N         139.7487  141.5696  167.6953 N.ar    1  UNL1       -0.2884
     27 C         140.1958  142.8668  168.3015 C.3     1  UNL1        0.1340
     28 C         140.0146  142.2017  165.1118 C.ar    1  UNL1        0.0374
     29 C         140.1838  143.6664  165.3871 C.ar    1  UNL1        0.0031
     30 C         140.5330  144.6042  164.2698 C.ar    1  UNL1        0.0016
     31 C         140.7131  144.0773  162.8770 C.ar    1  UNL1        0.0191
     32 C         140.5439  142.6126  162.6016 C.ar    1  UNL1        0.0810
     33 N         140.7239  142.0856  161.2088 N.ar    1  UNL1       -0.2497
     34 C         140.5547  140.6208  160.9333 C.ar    1  UNL1        0.0593
     35 C         140.7348  140.0938  159.5406 C.3     1  UNL1        0.0521
     36 C         140.2055  139.6830  162.0508 C.ar    1  UNL1        0.0147
     37 C         140.0255  140.2100  163.4436 C.ar    1  UNL1        0.0028
     38 C         140.1947  141.6748  163.7190 C.ar    1  UNL1        0.0206
@<TRIPOS>BOND
     1    18    19    1
     2    19    17    1
     3    17     3    1
     4     3     4   ar
     5     4     5   ar
     6     5     6   ar
     7     6     7   ar
     8     7     8   ar
     9     8     9   ar
    10     9    10   ar
    11    10    11   ar
    12     8    12    1
    13    12    13    1
    14    13    14    1
    15    14     2    1
    16     2     1    1
    17     1    20    1
    18    20    21    1
    19    21    22    1
    20    22    23   ar
    21    23    24   ar
    22    24    25   ar
    23    25    28    1
    24    28    29   ar
    25    29    30   ar
    26    30    31   ar
    27    31    32   ar
    28    32    33   ar
    29    33    34   ar
    30    34    35    1
    31    34    36   ar
    32    36    37   ar
    33    37    38   ar
    34    25    26   ar
    35    26    27    1
    36    14    15    1
    37    15    16    1
    38    11     3   ar
    39    26    22   ar
    40    10     5   ar
    41    38    28   ar
    42    16     7    1
    43    38    32   ar
@<TRIPOS>MOLECULE
*****
 38 43 0 0 0
SMALL
GASTEIGER

@<TRIPOS>ATOM
      1 C         142.7302  139.8804  169.0384 C.3     1  UNL1        0.0294
      2 C         142.9101  139.1093  167.7643 C.3     1  UNL1        0.0730
      3 C         142.0528  143.6014  159.2188 C.ar    1  UNL1        0.2057
      4 N         142.5032  144.2300  160.5041 N.ar    1  UNL1       -0.2121
      5 C         142.4871  143.1727  161.5678 C.ar    1  UNL1        0.1182
      6 C         142.8323  143.2117  163.0271 C.ar    1  UNL1        0.0178
      7 C         142.7169  141.9685  163.8585 C.ar    1  UNL1       -0.0230
      8 C         142.2566  140.6865  163.2307 C.ar    1  UNL1       -0.0216
      9 C         141.9115  140.6474  161.7715 C.ar    1  UNL1        0.0346
     10 C         142.0267  141.8905  160.9400 C.ar    1  UNL1        0.1640
     11 O         141.7583  142.1555  159.4883 O.2     1  UNL1       -0.4384
     12 C         142.0732  139.3434  163.8733 C.3     1  UNL1        0.0434
     13 C         142.3051  138.9510  165.3025 C.3     1  UNL1        0.0768
     14 N         142.7774  139.8045  166.4418 N.3     1  UNL1       -0.2720
     15 C         143.1347  141.2614  166.4336 C.3     1  UNL1        0.0768
     16 C         143.1078  142.2244  165.2840 C.3     1  UNL1        0.0434
     17 C         141.9201  144.2966  157.8962 C.3     1  UNL1        0.0853
     18 C         140.6463  146.2052  156.6778 C.3     1  UNL1        0.0005
     19 C         141.4606  145.7235  157.8417 C.3     1  UNL1        0.0097
     20 C         141.5787  139.5685  169.9476 C.3     1  UNL1        0.0666
     21 S         140.2331  140.1794  169.6903 S.3     1  UNL1       -0.0756
     22 C         139.7463  140.3555  168.2824 C.ar    1  UNL1        0.1932
     23 N         139.0283  139.3249  167.4624 N.ar    1  UNL1       -0.1221
     24 N         138.7303  139.9255  166.1206 N.ar    1  UNL1       -0.1282
     25 C         139.2640  141.3273  166.1113 C.ar    1  UNL1        0.1669
     26 N         139.8920  141.5930  167.4474 N.ar    1  UNL1       -0.2884
     27 C         140.5501  142.8718  167.8736 C.3     1  UNL1        0.1340
     28 C         139.1840  142.2937  164.9670 C.ar    1  UNL1        0.0374
     29 C         139.4424  143.7531  165.1982 C.ar    1  UNL1        0.0031
     30 C         139.3623  144.7195  164.0538 C.ar    1  UNL1        0.0016
     31 C         139.0238  144.2266  162.6781 C.ar    1  UNL1        0.0191
     32 C         138.7654  142.7672  162.4469 C.ar    1  UNL1        0.0810
     33 N         138.4269  142.2742  161.0713 N.ar    1  UNL1       -0.2497
     34 C         138.1685  140.8148  160.8400 C.ar    1  UNL1        0.0593
     35 C         137.8300  140.3218  159.4644 C.3     1  UNL1        0.0521
     36 C         138.2486  139.8484  161.9845 C.ar    1  UNL1        0.0147
     37 C         138.5871  140.3414  163.3601 C.ar    1  UNL1        0.0028
     38 C         138.8455  141.8008  163.5913 C.ar    1  UNL1        0.0206
@<TRIPOS>BOND
     1    18    19    1
     2    19    17    1
     3    17     3    1
     4     3     4   ar
     5     4     5   ar
     6     5     6   ar
     7     6     7   ar
     8     7     8   ar
     9     8     9   ar
    10     9    10   ar
    11    10    11   ar
    12     8    12    1
    13    12    13    1
    14    13    14    1
    15    14     2    1
    16     2     1    1
    17     1    20    1
    18    20    21    1
    19    21    22    1
    20    22    23   ar
    21    23    24   ar
    22    24    25   ar
    23    25    28    1
    24    28    29   ar
    25    29    30   ar
    26    30    31   ar
    27    31    32   ar
    28    32    33   ar
    29    33    34   ar
    30    34    35    1
    31    34    36   ar
    32    36    37   ar
    33    37    38   ar
    34    25    26   ar
    35    26    27    1
    36    14    15    1
    37    15    16    1
    38    11     3   ar
    39    26    22   ar
    40    10     5   ar
    41    38    28   ar
    42    16     7    1
    43    38    32   ar
@<TRIPOS>MOLECULE
*****
 38 43 0 0 0
SMALL
GASTEIGER

@<TRIPOS>ATOM
      1 C         144.2196  141.6997  157.5711 C.3     1  UNL1        0.0294
      2 C         144.2520  142.9253  158.4353 C.3     1  UNL1        0.0730
      3 C         141.0196  142.5062  167.5632 C.ar    1  UNL1        0.2057
      4 N         140.1882  142.7799  166.3450 N.ar    1  UNL1       -0.2121
      5 C         141.0938  142.7516  165.1497 C.ar    1  UNL1        0.1182
      6 C         140.8314  142.9534  163.6866 C.ar    1  UNL1        0.0178
      7 C         141.9603  142.8640  162.7029 C.ar    1  UNL1       -0.0230
      8 C         143.3514  142.5728  163.1822 C.ar    1  UNL1       -0.0216
      9 C         143.6139  142.3710  164.6452 C.ar    1  UNL1        0.0346
     10 C         142.4851  142.4604  165.6290 C.ar    1  UNL1        0.1640
     11 O         142.4392  142.3088  167.1206 O.2     1  UNL1       -0.4384
     12 C         144.6100  142.4419  162.3766 C.3     1  UNL1        0.0434
     13 C         144.7881  142.5700  160.8926 C.3     1  UNL1        0.0768
     14 N         143.7517  142.8605  159.8480 N.3     1  UNL1       -0.2720
     15 C         142.2812  143.0947  160.0290 C.3     1  UNL1        0.0768
     16 C         141.4839  143.0962  161.2996 C.3     1  UNL1        0.0434
     17 C         140.5194  142.4414  168.9758 C.3     1  UNL1        0.0853
     18 C         139.6641  140.0220  168.5695 C.3     1  UNL1        0.0005
     19 C         139.7779  141.2282  169.4539 C.3     1  UNL1        0.0097
     20 C         143.0129  141.4071  156.7294 C.3     1  UNL1        0.0666
     21 S         142.4027  140.0369  156.7440 S.3     1  UNL1       -0.0756
     22 C         142.2750  139.2865  158.0365 C.ar    1  UNL1        0.1932
     23 N         143.2100  138.2252  158.5359 N.ar    1  UNL1       -0.1221
     24 N         142.7027  137.7483  159.8645 N.ar    1  UNL1       -0.1282
     25 C         141.4542  138.5150  160.1863 C.ar    1  UNL1        0.1669
     26 N         141.1898  139.4656  159.0565 N.ar    1  UNL1       -0.2884
     27 C         140.0419  140.4266  158.9631 C.3     1  UNL1        0.1340
     28 C         140.6171  138.3585  161.4210 C.ar    1  UNL1        0.0374
     29 C         139.1483  138.0787  161.3009 C.ar    1  UNL1        0.0031
     30 C         138.3111  137.9222  162.5356 C.ar    1  UNL1        0.0016
     31 C         138.9426  138.0455  163.8906 C.ar    1  UNL1        0.0191
     32 C         140.4114  138.3252  164.0107 C.ar    1  UNL1        0.0810
     33 N         141.0430  138.4485  165.3657 N.ar    1  UNL1       -0.2497
     34 C         142.5118  138.7282  165.4859 C.ar    1  UNL1        0.0593
     35 C         143.1434  138.8515  166.8409 C.3     1  UNL1        0.0521
     36 C         143.3489  138.8847  164.2511 C.ar    1  UNL1        0.0147
     37 C         142.7173  138.7615  162.8962 C.ar    1  UNL1        0.0028
     38 C         141.2486  138.4817  162.7760 C.ar    1  UNL1        0.0206
@<TRIPOS>BOND
     1    18    19    1
     2    19    17    1
     3    17     3    1
     4     3     4   ar
     5     4     5   ar
     6     5     6   ar
     7     6     7   ar
     8     7     8   ar
     9     8     9   ar
    10     9    10   ar
    11    10    11   ar
    12     8    12    1
    13    12    13    1
    14    13    14    1
    15    14     2    1
    16     2     1    1
    17     1    20    1
    18    20    21    1
    19    21    22    1
    20    22    23   ar
    21    23    24   ar
    22    24    25   ar
    23    25    28    1
    24    28    29   ar
    25    29    30   ar
    26    30    31   ar
    27    31    32   ar
    28    32    33   ar
    29    33    34   ar
    30    34    35    1
    31    34    36   ar
    32    36    37   ar
    33    37    38   ar
    34    25    26   ar
    35    26    27    1
    36    14    15    1
    37    15    16    1
    38    11     3   ar
    39    26    22   ar
    40    10     5   ar
    41    38    28   ar
    42    16     7    1
    43    38    32   ar
