@<TRIPOS>MOLECULE
*****
 35 37 0 0 0
SMALL
GASTEIGER

@<TRIPOS>ATOM
      1 C         142.0070  141.9525  163.4505 C.3     1  UNL1        0.1017
      2 C         141.6519  141.0424  162.3123 C.3     1  UNL1        0.0394
      3 C         142.1958  141.3099  160.9402 C.3     1  UNL1        0.0739
      4 N         143.0949  142.4876  160.7063 N.3     1  UNL1       -0.2704
      5 C         143.4500  143.3978  161.8445 C.3     1  UNL1        0.1037
      6 C         142.9061  143.1303  163.2165 C.3     1  UNL1        0.1490
      7 C         142.1401  140.6888  165.7166 C.2     1  UNL1        0.2488
      8 O         143.3610  139.9602  165.2386 O.2     1  UNL1       -0.2700
      9 N         141.4632  141.6850  164.8225 N.am    1  UNL1       -0.2999
     10 H         140.6619  142.1632  165.1362 H       1  UNL1        0.1498
     11 C         140.1145  140.4255  167.3220 C.ar    1  UNL1        0.1443
     12 C         139.5706  140.1580  168.6941 C.ar    1  UNL1        0.0520
     13 C         140.5084  139.8863  169.8328 C.ar    1  UNL1        0.0553
     14 N         139.9645  139.6188  171.2049 N.pl3   1  UNL1       -0.3563
     15 C         141.9901  139.8821  169.5994 C.ar    1  UNL1        0.0709
     16 CL        142.9280  139.6104  170.7381 Cl      1  UNL1       -0.0810
     17 C         142.5340  140.1496  168.2274 C.ar    1  UNL1        0.0202
     18 C         141.5962  140.4213  167.0887 C.ar    1  UNL1        0.0882
     19 H         138.9920  139.6216  171.3581 H       1  UNL1        0.1424
     20 H         140.5800  139.4404  171.9523 H       1  UNL1        0.1424
     21 C         138.4023  139.5715  165.5645 C.3     1  UNL1        0.2525
     22 O         139.1767  140.6972  166.1833 O.3     1  UNL1       -0.4712
     23 O         143.2613  144.0404  164.3547 O.3     1  UNL1       -0.3505
     24 C         144.4154  143.7043  165.2518 C.3     1  UNL1        0.1741
     25 C         143.6388  142.7552  159.3342 C.3     1  UNL1        0.0760
     26 C         142.7062  143.1066  158.2132 C.3     1  UNL1        0.0646
     27 C         141.7036  144.2084  158.3890 C.3     1  UNL1        0.2068
     28 O         140.3397  143.9016  158.9326 O.3     1  UNL1       -0.4754
     29 C         140.0083  144.2326  160.3576 C.ar    1  UNL1        0.1387
     30 C         139.0915  143.3406  161.1411 C.ar    1  UNL1        0.0392
     31 C         138.7601  143.6716  162.5661 C.ar    1  UNL1        0.0327
     32 C         139.3456  144.8947  163.2076 C.ar    1  UNL1        0.1403
     33 F         139.0142  145.2257  164.6326 F       1  UNL1       -0.2042
     34 C         140.2624  145.7867  162.4241 C.ar    1  UNL1        0.0327
     35 C         140.5937  145.4556  160.9991 C.ar    1  UNL1        0.0392
@<TRIPOS>BOND
     1    21    22    1
     2    22    11    1
     3    11    12   ar
     4    12    13   ar
     5    13    14    1
     6    13    15   ar
     7    15    16    1
     8    15    17   ar
     9    17    18   ar
    10    18     7    1
    11     7     8    2
    12     7     9   am
    13     1     9    1
    14     1     2    1
    15     2     3    1
    16     3     4    1
    17     4    25    1
    18    25    26    1
    19    26    27    1
    20    27    28    1
    21    28    29    1
    22    29    30   ar
    23    30    31   ar
    24    31    32   ar
    25    32    33    1
    26    32    34   ar
    27    34    35   ar
    28     4     5    1
    29     5     6    1
    30     6    23    1
    31    23    24    1
    32    18    11   ar
    33     6     1    1
    34    35    29   ar
    35    14    19    1
    36    14    20    1
    37     9    10    1
@<TRIPOS>MOLECULE
*****
 35 37 0 0 0
SMALL
GASTEIGER

@<TRIPOS>ATOM
      1 C         141.9274  142.0173  163.4656 C.3     1  UNL1        0.1017
      2 C         142.7937  143.2189  163.2296 C.3     1  UNL1        0.0394
      3 C         143.3180  143.5070  161.8540 C.3     1  UNL1        0.0739
      4 N         142.9759  142.5935  160.7144 N.3     1  UNL1       -0.2704
      5 C         142.1096  141.3919  160.9505 C.3     1  UNL1        0.1037
      6 C         141.5853  141.1038  162.3260 C.3     1  UNL1        0.1490
      7 C         142.1142  140.7471  165.7242 C.2     1  UNL1        0.2488
      8 O         143.3494  140.0531  165.2319 O.2     1  UNL1       -0.2700
      9 N         141.4032  141.7291  164.8411 N.am    1  UNL1       -0.2999
     10 H         140.5924  142.1846  165.1643 H       1  UNL1        0.1498
     11 C         140.1109  140.4347  167.3489 C.ar    1  UNL1        0.1443
     12 C         139.5867  140.1466  168.7245 C.ar    1  UNL1        0.0520
     13 C         140.5414  139.8827  169.8509 C.ar    1  UNL1        0.0553
     14 N         140.0171  139.5946  171.2265 N.pl3   1  UNL1       -0.3563
     15 C         142.0204  139.9070  169.6018 C.ar    1  UNL1        0.0709
     16 CL        142.9751  139.6431  170.7283 Cl      1  UNL1       -0.0810
     17 C         142.5446  140.1951  168.2263 C.ar    1  UNL1        0.0202
     18 C         141.5899  140.4589  167.0998 C.ar    1  UNL1        0.0882
     19 H         139.0464  139.5787  171.3900 H       1  UNL1        0.1424
     20 H         140.6437  139.4214  171.9658 H       1  UNL1        0.1424
     21 C         138.4755  139.5538  165.5325 C.3     1  UNL1        0.2525
     22 O         139.1562  140.6986  166.2225 O.3     1  UNL1       -0.4712
     23 O         140.7190  139.9022  162.5620 O.3     1  UNL1       -0.3505
     24 C         141.3439  138.5502  162.7390 C.3     1  UNL1        0.1741
     25 C         143.5001  142.8816  159.3389 C.3     1  UNL1        0.0760
     26 C         142.7715  143.8399  158.4441 C.3     1  UNL1        0.0646
     27 C         141.3223  144.1403  158.6886 C.3     1  UNL1        0.2068
     28 O         140.9305  145.1539  159.7225 O.3     1  UNL1       -0.4754
     29 C         140.1030  144.7398  160.9030 C.ar    1  UNL1        0.1387
     30 C         140.1436  145.5460  162.1673 C.ar    1  UNL1        0.0392
     31 C         139.3161  145.1319  163.3478 C.ar    1  UNL1        0.0327
     32 C         138.4479  143.9115  163.2641 C.ar    1  UNL1        0.1403
     33 F         137.6204  143.4974  164.4446 F       1  UNL1       -0.2042
     34 C         138.4073  143.1053  161.9998 C.ar    1  UNL1        0.0327
     35 C         139.2348  143.5195  160.8193 C.ar    1  UNL1        0.0392
@<TRIPOS>BOND
     1    21    22    1
     2    22    11    1
     3    11    12   ar
     4    12    13   ar
     5    13    14    1
     6    13    15   ar
     7    15    16    1
     8    15    17   ar
     9    17    18   ar
    10    18     7    1
    11     7     8    2
    12     7     9   am
    13     1     9    1
    14     1     2    1
    15     2     3    1
    16     3     4    1
    17     4    25    1
    18    25    26    1
    19    26    27    1
    20    27    28    1
    21    28    29    1
    22    29    30   ar
    23    30    31   ar
    24    31    32   ar
    25    32    33    1
    26    32    34   ar
    27    34    35   ar
    28     4     5    1
    29     5     6    1
    30     6    23    1
    31    23    24    1
    32    18    11   ar
    33     6     1    1
    34    35    29   ar
    35    14    19    1
    36    14    20    1
    37     9    10    1
@<TRIPOS>MOLECULE
*****
 35 37 0 0 0
SMALL
GASTEIGER

@<TRIPOS>ATOM
      1 C         140.4322  141.6889  163.4030 C.3     1  UNL1        0.1017
      2 C         141.3425  141.4244  162.2405 C.3     1  UNL1        0.0394
      3 C         140.9723  141.9135  160.8716 C.3     1  UNL1        0.0739
      4 N         139.6919  142.6671  160.6653 N.3     1  UNL1       -0.2704
      5 C         138.7816  142.9315  161.8278 C.3     1  UNL1        0.1037
      6 C         139.1517  142.4425  163.1966 C.3     1  UNL1        0.1490
      7 C         141.8245  141.9406  165.5820 C.2     1  UNL1        0.2488
      8 O         142.4766  143.1705  165.0233 O.2     1  UNL1       -0.2700
      9 N         140.8023  141.1998  164.7719 N.am    1  UNL1       -0.2999
     10 H         140.3743  140.3926  165.1386 H       1  UNL1        0.1498
     11 C         142.2766  139.9790  167.2245 C.ar    1  UNL1        0.1443
     12 C         142.6467  139.4899  168.5933 C.ar    1  UNL1        0.0520
     13 C         142.9348  140.4734  169.6886 C.ar    1  UNL1        0.0553
     14 N         143.3049  139.9843  171.0575 N.pl3   1  UNL1       -0.3563
     15 C         142.8528  141.9459  169.4151 C.ar    1  UNL1        0.0709
     16 CL        143.1410  142.9294  170.5104 Cl      1  UNL1       -0.0810
     17 C         142.4827  142.4350  168.0463 C.ar    1  UNL1        0.0202
     18 C         142.1946  141.4515  166.9509 C.ar    1  UNL1        0.0882
     19 H         143.3587  139.0178  171.2371 H       1  UNL1        0.1424
     20 H         143.4940  140.6297  171.7765 H       1  UNL1        0.1424
     21 C         143.1157  138.4087  165.3324 C.3     1  UNL1        0.2525
     22 O         141.9884  138.9955  166.1291 O.3     1  UNL1       -0.4712
     23 O         138.2414  142.7070  164.3591 O.3     1  UNL1       -0.3505
     24 C         137.9936  144.1152  164.8124 C.3     1  UNL1        0.1741
     25 C         139.3217  143.1561  159.2964 C.3     1  UNL1        0.0760
     26 C         138.3203  142.3995  158.4750 C.3     1  UNL1        0.0646
     27 C         138.3915  140.9032  158.3969 C.3     1  UNL1        0.2068
     28 O         137.6279  140.0638  159.3778 O.3     1  UNL1       -0.4754
     29 C         138.3577  139.3218  160.4579 C.ar    1  UNL1        0.1387
     30 C         137.7511  139.1979  161.8242 C.ar    1  UNL1        0.0392
     31 C         138.4810  138.4559  162.9043 C.ar    1  UNL1        0.0327
     32 C         139.8175  137.8378  162.6182 C.ar    1  UNL1        0.1403
     33 F         140.5474  137.0959  163.6984 F       1  UNL1       -0.2042
     34 C         140.4241  137.9618  161.2520 C.ar    1  UNL1        0.0327
     35 C         139.6942  138.7038  160.1718 C.ar    1  UNL1        0.0392
@<TRIPOS>BOND
     1    21    22    1
     2    22    11    1
     3    11    12   ar
     4    12    13   ar
     5    13    14    1
     6    13    15   ar
     7    15    16    1
     8    15    17   ar
     9    17    18   ar
    10    18     7    1
    11     7     8    2
    12     7     9   am
    13     1     9    1
    14     1     2    1
    15     2     3    1
    16     3     4    1
    17     4    25    1
    18    25    26    1
    19    26    27    1
    20    27    28    1
    21    28    29    1
    22    29    30   ar
    23    30    31   ar
    24    31    32   ar
    25    32    33    1
    26    32    34   ar
    27    34    35   ar
    28     4     5    1
    29     5     6    1
    30     6    23    1
    31    23    24    1
    32    18    11   ar
    33     6     1    1
    34    35    29   ar
    35    14    19    1
    36    14    20    1
    37     9    10    1
@<TRIPOS>MOLECULE
*****
 35 37 0 0 0
SMALL
GASTEIGER

@<TRIPOS>ATOM
      1 C         141.6203  142.0634  163.5185 C.3     1  UNL1        0.1017
      2 C         141.2411  143.4521  163.0970 C.3     1  UNL1        0.0394
      3 C         141.2620  143.8271  161.6447 C.3     1  UNL1        0.0739
      4 N         141.6621  142.8134  160.6140 N.3     1  UNL1       -0.2704
      5 C         142.0414  141.4247  161.0355 C.3     1  UNL1        0.1037
      6 C         142.0205  141.0497  162.4877 C.3     1  UNL1        0.1490
      7 C         142.8403  141.8340  165.8008 C.2     1  UNL1        0.2488
      8 O         144.1019  142.3547  165.1788 O.2     1  UNL1       -0.2700
      9 N         141.5995  141.6883  164.9706 N.am    1  UNL1       -0.2999
     10 H         140.7714  141.3465  165.3789 H       1  UNL1        0.1498
     11 C         142.5868  140.0330  167.6561 C.ar    1  UNL1        0.1443
     12 C         142.5659  139.6579  169.1083 C.ar    1  UNL1        0.0520
     13 C         142.7775  140.7089  170.1574 C.ar    1  UNL1        0.0553
     14 N         142.7565  140.3338  171.6097 N.pl3   1  UNL1       -0.3563
     15 C         143.0099  142.1349  169.7544 C.ar    1  UNL1        0.0709
     16 CL        143.2215  143.1859  170.8035 Cl      1  UNL1       -0.0810
     17 C         143.0309  142.5099  168.3022 C.ar    1  UNL1        0.0202
     18 C         142.8193  141.4589  167.2531 C.ar    1  UNL1        0.0882
     19 H         142.6039  139.3979  171.8742 H       1  UNL1        0.1424
     20 H         142.8954  141.0236  172.2983 H       1  UNL1        0.1424
     21 C         143.5429  138.1997  166.0829 C.3     1  UNL1        0.2525
     22 O         142.3753  138.9820  166.6070 O.3     1  UNL1       -0.4712
     23 O         142.3997  139.6609  162.9092 O.3     1  UNL1       -0.3505
     24 C         141.3600  138.5807  162.9546 C.3     1  UNL1        0.1741
     25 C         141.6830  143.1885  159.1618 C.3     1  UNL1        0.0760
     26 C         140.3982  143.2864  158.3940 C.3     1  UNL1        0.0646
     27 C         139.2042  142.4870  158.8247 C.3     1  UNL1        0.2068
     28 O         138.2792  143.0270  159.8747 O.3     1  UNL1       -0.4754
     29 C         138.1330  142.3119  161.1851 C.ar    1  UNL1        0.1387
     30 C         137.7751  143.0799  162.4229 C.ar    1  UNL1        0.0392
     31 C         137.6289  142.3648  163.7333 C.ar    1  UNL1        0.0327
     32 C         137.8407  140.8815  163.8060 C.ar    1  UNL1        0.1403
     33 F         137.6945  140.1664  165.1164 F       1  UNL1       -0.2042
     34 C         138.1987  140.1135  162.5682 C.ar    1  UNL1        0.0327
     35 C         138.3449  140.8287  161.2578 C.ar    1  UNL1        0.0392
@<TRIPOS>BOND
     1    21    22    1
     2    22    11    1
     3    11    12   ar
     4    12    13   ar
     5    13    14    1
     6    13    15   ar
     7    15    16    1
     8    15    17   ar
     9    17    18   ar
    10    18     7    1
    11     7     8    2
    12     7     9   am
    13     1     9    1
    14     1     2    1
    15     2     3    1
    16     3     4    1
    17     4    25    1
    18    25    26    1
    19    26    27    1
    20    27    28    1
    21    28    29    1
    22    29    30   ar
    23    30    31   ar
    24    31    32   ar
    25    32    33    1
    26    32    34   ar
    27    34    35   ar
    28     4     5    1
    29     5     6    1
    30     6    23    1
    31    23    24    1
    32    18    11   ar
    33     6     1    1
    34    35    29   ar
    35    14    19    1
    36    14    20    1
    37     9    10    1
@<TRIPOS>MOLECULE
*****
 35 37 0 0 0
SMALL
GASTEIGER

@<TRIPOS>ATOM
      1 C         141.7222  139.2660  163.2592 C.3     1  UNL1        0.1017
      2 C         142.2683  137.9968  162.6753 C.3     1  UNL1        0.0394
      3 C         142.7462  137.9701  161.2536 C.3     1  UNL1        0.0739
      4 N         142.6780  139.2126  160.4160 N.3     1  UNL1       -0.2704
      5 C         142.1318  140.4817  160.9999 C.3     1  UNL1        0.1037
      6 C         141.6539  140.5084  162.4215 C.3     1  UNL1        0.1490
      7 C         142.1084  139.8901  165.7514 C.2     1  UNL1        0.2488
      8 O         143.4504  140.4609  165.4005 O.2     1  UNL1       -0.2700
      9 N         141.2443  139.2927  164.6807 N.am    1  UNL1       -0.2999
     10 H         140.3634  138.9181  164.9111 H       1  UNL1        0.1498
     11 C         140.1675  140.0641  167.4698 C.ar    1  UNL1        0.1443
     12 C         139.6896  140.0908  168.8913 C.ar    1  UNL1        0.0520
     13 C         140.6746  139.9702  170.0161 C.ar    1  UNL1        0.0553
     14 N         140.1967  139.9969  171.4377 N.pl3   1  UNL1       -0.3563
     15 C         142.1376  139.8230  169.7194 C.ar    1  UNL1        0.0709
     16 CL        143.1226  139.7025  170.8442 Cl      1  UNL1       -0.0810
     17 C         142.6154  139.7963  168.2978 C.ar    1  UNL1        0.0202
     18 C         141.6304  139.9168  167.1730 C.ar    1  UNL1        0.0882
     19 H         139.2365  140.0936  171.6325 H       1  UNL1        0.1424
     20 H         140.8431  139.9178  172.1760 H       1  UNL1        0.1424
     21 C         138.0809  139.1767  166.2015 C.3     1  UNL1        0.2525
     22 O         139.1824  140.1846  166.3450 O.3     1  UNL1       -0.4712
     23 O         141.1077  141.7776  163.0054 O.3     1  UNL1       -0.3505
     24 C         142.0268  142.9282  163.2909 C.3     1  UNL1        0.1741
     25 C         143.1559  139.1858  158.9945 C.3     1  UNL1        0.0760
     26 C         142.2645  138.6502  157.9135 C.3     1  UNL1        0.0646
     27 C         140.8111  139.0204  157.8878 C.3     1  UNL1        0.2068
     28 O         139.8246  138.2431  158.7079 O.3     1  UNL1       -0.4754
     29 C         139.1542  138.8881  159.8846 C.ar    1  UNL1        0.1387
     30 C         138.9149  138.0985  161.1372 C.ar    1  UNL1        0.0392
     31 C         138.2445  138.7435  162.3139 C.ar    1  UNL1        0.0327
     32 C         137.8133  140.1782  162.2379 C.ar    1  UNL1        0.1403
     33 F         137.1429  140.8232  163.4145 F       1  UNL1       -0.2042
     34 C         138.0526  140.9679  160.9852 C.ar    1  UNL1        0.0327
     35 C         138.7230  140.3228  159.8085 C.ar    1  UNL1        0.0392
@<TRIPOS>BOND
     1    21    22    1
     2    22    11    1
     3    11    12   ar
     4    12    13   ar
     5    13    14    1
     6    13    15   ar
     7    15    16    1
     8    15    17   ar
     9    17    18   ar
    10    18     7    1
    11     7     8    2
    12     7     9   am
    13     1     9    1
    14     1     2    1
    15     2     3    1
    16     3     4    1
    17     4    25    1
    18    25    26    1
    19    26    27    1
    20    27    28    1
    21    28    29    1
    22    29    30   ar
    23    30    31   ar
    24    31    32   ar
    25    32    33    1
    26    32    34   ar
    27    34    35   ar
    28     4     5    1
    29     5     6    1
    30     6    23    1
    31    23    24    1
    32    18    11   ar
    33     6     1    1
    34    35    29   ar
    35    14    19    1
    36    14    20    1
    37     9    10    1
@<TRIPOS>MOLECULE
*****
 35 37 0 0 0
SMALL
GASTEIGER

@<TRIPOS>ATOM
      1 C         139.8176  143.4790  164.0777 C.3     1  UNL1        0.1017
      2 C         140.7554  144.6372  163.9063 C.3     1  UNL1        0.0394
      3 C         140.9548  145.2464  162.5502 C.3     1  UNL1        0.0739
      4 N         140.2165  144.6975  161.3655 N.3     1  UNL1       -0.2704
      5 C         139.2787  143.5394  161.5368 C.3     1  UNL1        0.1037
      6 C         139.0793  142.9302  162.8929 C.3     1  UNL1        0.1490
      7 C         140.7085  142.0473  166.0542 C.2     1  UNL1        0.2488
      8 O         141.9981  141.8341  165.3186 O.2     1  UNL1       -0.2700
      9 N         139.6182  142.8698  165.4338 N.am    1  UNL1       -0.2999
     10 H         138.7717  143.0097  165.9166 H       1  UNL1        0.1498
     11 C         139.4904  140.3540  167.6031 C.ar    1  UNL1        0.1443
     12 C         139.2909  139.7448  168.9592 C.ar    1  UNL1        0.0520
     13 C         140.1101  140.2196  170.1226 C.ar    1  UNL1        0.0553
     14 N         139.9106  139.6104  171.4787 N.pl3   1  UNL1       -0.3563
     15 C         141.1287  141.3037  169.9299 C.ar    1  UNL1        0.0709
     16 CL        141.9479  141.7785  171.0932 Cl      1  UNL1       -0.0810
     17 C         141.3282  141.9129  168.5738 C.ar    1  UNL1        0.0202
     18 C         140.5090  141.4381  167.4104 C.ar    1  UNL1        0.0882
     19 H         139.2420  138.8989  171.6052 H       1  UNL1        0.1424
     20 H         140.4483  139.9220  172.2423 H       1  UNL1        0.1424
     21 C         137.9843  138.5471  166.5001 C.3     1  UNL1        0.2525
     22 O         138.6712  139.8792  166.4397 O.3     1  UNL1       -0.4712
     23 O         138.1416  141.7720  163.0643 O.3     1  UNL1       -0.3505
     24 C         138.6247  140.3732  162.8198 C.3     1  UNL1        0.1741
     25 C         140.4159  145.3068  160.0094 C.3     1  UNL1        0.0760
     26 C         141.3025  144.6303  159.0062 C.3     1  UNL1        0.0646
     27 C         142.2649  143.5692  159.4510 C.3     1  UNL1        0.2068
     28 O         143.3539  143.9054  160.4263 O.3     1  UNL1       -0.4754
     29 C         143.8924  142.8476  161.3433 C.ar    1  UNL1        0.1387
     30 C         144.5736  143.2386  162.6212 C.ar    1  UNL1        0.0392
     31 C         145.1121  142.1807  163.5382 C.ar    1  UNL1        0.0327
     32 C         144.9693  140.7318  163.1773 C.ar    1  UNL1        0.1403
     33 F         145.5078  139.6739  164.0943 F       1  UNL1       -0.2042
     34 C         144.2881  140.3407  161.8994 C.ar    1  UNL1        0.0327
     35 C         143.7496  141.3987  160.9824 C.ar    1  UNL1        0.0392
@<TRIPOS>BOND
     1    21    22    1
     2    22    11    1
     3    11    12   ar
     4    12    13   ar
     5    13    14    1
     6    13    15   ar
     7    15    16    1
     8    15    17   ar
     9    17    18   ar
    10    18     7    1
    11     7     8    2
    12     7     9   am
    13     1     9    1
    14     1     2    1
    15     2     3    1
    16     3     4    1
    17     4    25    1
    18    25    26    1
    19    26    27    1
    20    27    28    1
    21    28    29    1
    22    29    30   ar
    23    30    31   ar
    24    31    32   ar
    25    32    33    1
    26    32    34   ar
    27    34    35   ar
    28     4     5    1
    29     5     6    1
    30     6    23    1
    31    23    24    1
    32    18    11   ar
    33     6     1    1
    34    35    29   ar
    35    14    19    1
    36    14    20    1
    37     9    10    1
@<TRIPOS>MOLECULE
*****
 35 37 0 0 0
SMALL
GASTEIGER

@<TRIPOS>ATOM
      1 C         141.7248  138.4854  163.5557 C.3     1  UNL1        0.1017
      2 C         143.1539  138.3438  163.1224 C.3     1  UNL1        0.0394
      3 C         143.4887  138.2418  161.6637 C.3     1  UNL1        0.0739
      4 N         142.3945  138.2814  160.6385 N.3     1  UNL1       -0.2704
      5 C         140.9655  138.4230  161.0718 C.3     1  UNL1        0.1037
      6 C         140.6306  138.5250  162.5304 C.3     1  UNL1        0.1490
      7 C         141.6894  139.8504  165.7660 C.2     1  UNL1        0.2488
      8 O         142.3238  141.0114  165.0592 O.2     1  UNL1       -0.2700
      9 N         141.3900  138.5874  165.0143 N.am    1  UNL1       -0.2999
     10 H         140.9737  137.8254  165.4782 H       1  UNL1        0.1498
     11 C         139.9209  139.9859  167.6644 C.ar    1  UNL1        0.1443
     12 C         139.5861  140.0878  169.1230 C.ar    1  UNL1        0.0520
     13 C         140.6849  140.1562  170.1418 C.ar    1  UNL1        0.0553
     14 N         140.3500  140.2582  171.6004 N.pl3   1  UNL1       -0.3563
     15 C         142.1186  140.1227  169.7020 C.ar    1  UNL1        0.0709
     16 CL        143.2174  140.1911  170.7207 Cl      1  UNL1       -0.0810
     17 C         142.4534  140.0208  168.2434 C.ar    1  UNL1        0.0202
     18 C         141.3546  139.9524  167.2246 C.ar    1  UNL1        0.0882
     19 H         139.4091  140.2802  171.8891 H       1  UNL1        0.1424
     20 H         141.0712  140.3031  172.2691 H       1  UNL1        0.1424
     21 C         137.9016  138.7336  166.6137 C.3     1  UNL1        0.2525
     22 O         138.8221  139.9175  166.6457 O.3     1  UNL1       -0.4712
     23 O         139.2016  138.6666  162.9637 O.3     1  UNL1       -0.3505
     24 C         138.0982  138.1446  162.0919 C.3     1  UNL1        0.1741
     25 C         142.7294  138.1795  159.1800 C.3     1  UNL1        0.0760
     26 C         142.9749  139.4231  158.3781 C.3     1  UNL1        0.0646
     27 C         143.0166  140.7588  159.0594 C.3     1  UNL1        0.2068
     28 O         144.2831  141.2292  159.7112 O.3     1  UNL1       -0.4754
     29 C         144.2210  142.0582  160.9597 C.ar    1  UNL1        0.1387
     30 C         143.3358  143.2680  161.0134 C.ar    1  UNL1        0.0392
     31 C         143.2738  144.0970  162.2619 C.ar    1  UNL1        0.0327
     32 C         144.0969  143.7163  163.4567 C.ar    1  UNL1        0.1403
     33 F         144.0349  144.5453  164.7052 F       1  UNL1       -0.2042
     34 C         144.9821  142.5065  163.4030 C.ar    1  UNL1        0.0327
     35 C         145.0441  141.6775  162.1544 C.ar    1  UNL1        0.0392
@<TRIPOS>BOND
     1    21    22    1
     2    22    11    1
     3    11    12   ar
     4    12    13   ar
     5    13    14    1
     6    13    15   ar
     7    15    16    1
     8    15    17   ar
     9    17    18   ar
    10    18     7    1
    11     7     8    2
    12     7     9   am
    13     1     9    1
    14     1     2    1
    15     2     3    1
    16     3     4    1
    17     4    25    1
    18    25    26    1
    19    26    27    1
    20    27    28    1
    21    28    29    1
    22    29    30   ar
    23    30    31   ar
    24    31    32   ar
    25    32    33    1
    26    32    34   ar
    27    34    35   ar
    28     4     5    1
    29     5     6    1
    30     6    23    1
    31    23    24    1
    32    18    11   ar
    33     6     1    1
    34    35    29   ar
    35    14    19    1
    36    14    20    1
    37     9    10    1
@<TRIPOS>MOLECULE
*****
 35 37 0 0 0
SMALL
GASTEIGER

@<TRIPOS>ATOM
      1 C         140.3242  142.9677  163.1329 C.3     1  UNL1        0.1017
      2 C         138.8642  143.1595  162.8471 C.3     1  UNL1        0.0394
      3 C         138.3415  142.9703  161.4539 C.3     1  UNL1        0.0739
      4 N         139.2787  142.5892  160.3465 N.3     1  UNL1       -0.2704
      5 C         140.7386  142.3973  160.6323 C.3     1  UNL1        0.1037
      6 C         141.2614  142.5865  162.0254 C.3     1  UNL1        0.1490
      7 C         140.6633  142.0757  165.5493 C.2     1  UNL1        0.2488
      8 O         139.9568  140.8052  165.1796 O.2     1  UNL1       -0.2700
      9 N         140.8470  143.1569  164.5260 N.am    1  UNL1       -0.2999
     10 H         141.3107  143.9908  164.7687 H       1  UNL1        0.1498
     11 C         142.6645  142.2604  167.1959 C.ar    1  UNL1        0.1443
     12 C         143.1873  142.4497  168.5890 C.ar    1  UNL1        0.0520
     13 C         142.2316  142.6436  169.7288 C.ar    1  UNL1        0.0553
     14 N         142.7544  142.8329  171.1220 N.pl3   1  UNL1       -0.3563
     15 C         140.7532  142.6482  169.4754 C.ar    1  UNL1        0.0709
     16 CL        139.7975  142.8421  170.6152 Cl      1  UNL1       -0.0810
     17 C         140.2304  142.4589  168.0823 C.ar    1  UNL1        0.0202
     18 C         141.1861  142.2650  166.9425 C.ar    1  UNL1        0.0882
     19 H         143.7248  142.8298  171.2883 H       1  UNL1        0.1424
     20 H         142.1272  142.9602  171.8701 H       1  UNL1        0.1424
     21 C         144.3344  143.2467  165.4671 C.3     1  UNL1        0.2525
     22 O         143.6202  142.0665  166.0561 O.3     1  UNL1       -0.4712
     23 O         142.7214  142.3946  162.3111 O.3     1  UNL1       -0.3505
     24 C         143.2418  141.0363  162.6769 C.3     1  UNL1        0.1741
     25 C         138.7559  142.3999  158.9534 C.3     1  UNL1        0.0760
     26 C         138.0507  141.1288  158.5831 C.3     1  UNL1        0.0646
     27 C         138.1617  139.9239  159.4698 C.3     1  UNL1        0.2068
     28 O         139.4492  139.1572  159.5355 O.3     1  UNL1       -0.4754
     29 C         139.8871  138.5360  160.8287 C.ar    1  UNL1        0.1387
     30 C         138.8732  138.2079  161.8843 C.ar    1  UNL1        0.0392
     31 C         139.3110  137.5867  163.1775 C.ar    1  UNL1        0.0327
     32 C         140.7628  137.2937  163.4151 C.ar    1  UNL1        0.1403
     33 F         141.2006  136.6725  164.7083 F       1  UNL1       -0.2042
     34 C         141.7767  137.6218  162.3595 C.ar    1  UNL1        0.0327
     35 C         141.3388  138.2430  161.0663 C.ar    1  UNL1        0.0392
@<TRIPOS>BOND
     1    21    22    1
     2    22    11    1
     3    11    12   ar
     4    12    13   ar
     5    13    14    1
     6    13    15   ar
     7    15    16    1
     8    15    17   ar
     9    17    18   ar
    10    18     7    1
    11     7     8    2
    12     7     9   am
    13     1     9    1
    14     1     2    1
    15     2     3    1
    16     3     4    1
    17     4    25    1
    18    25    26    1
    19    26    27    1
    20    27    28    1
    21    28    29    1
    22    29    30   ar
    23    30    31   ar
    24    31    32   ar
    25    32    33    1
    26    32    34   ar
    27    34    35   ar
    28     4     5    1
    29     5     6    1
    30     6    23    1
    31    23    24    1
    32    18    11   ar
    33     6     1    1
    34    35    29   ar
    35    14    19    1
    36    14    20    1
    37     9    10    1
@<TRIPOS>MOLECULE
*****
 35 37 0 0 0
SMALL
GASTEIGER

@<TRIPOS>ATOM
      1 C         141.9538  141.5711  163.4927 C.3     1  UNL1        0.1017
      2 C         140.9082  141.4481  162.4242 C.3     1  UNL1        0.0394
      3 C         141.1930  141.9400  161.0360 C.3     1  UNL1        0.0739
      4 N         142.5233  142.5549  160.7164 N.3     1  UNL1       -0.2704
      5 C         143.5689  142.6779  161.7849 C.3     1  UNL1        0.1037
      6 C         143.2841  142.1861  163.1730 C.3     1  UNL1        0.1490
      7 C         141.1252  142.0215  165.9136 C.2     1  UNL1        0.2488
      8 O         140.8661  143.4555  165.5582 O.2     1  UNL1       -0.2700
      9 N         141.6690  141.0793  164.8809 N.am    1  UNL1       -0.2999
     10 H         141.8391  140.1380  165.1141 H       1  UNL1        0.1498
     11 C         139.7765  140.4967  167.5280 C.ar    1  UNL1        0.1443
     12 C         139.4918  140.0048  168.9161 C.ar    1  UNL1        0.0520
     13 C         140.2711  140.5458  170.0781 C.ar    1  UNL1        0.0553
     14 N         139.9864  140.0538  171.4662 N.pl3   1  UNL1       -0.3563
     15 C         141.3351  141.5785  169.8519 C.ar    1  UNL1        0.0709
     16 CL        142.1144  142.1195  171.0138 Cl      1  UNL1       -0.0810
     17 C         141.6198  142.0704  168.4637 C.ar    1  UNL1        0.0202
     18 C         140.8405  141.5295  167.3018 C.ar    1  UNL1        0.0882
     19 H         139.2880  139.3759  171.6147 H       1  UNL1        0.1424
     20 H         140.4978  140.4088  172.2289 H       1  UNL1        0.1424
     21 C         138.0493  138.8108  166.5666 C.3     1  UNL1        0.2525
     22 O         138.9972  139.9558  166.3660 O.3     1  UNL1       -0.4712
     23 O         144.3297  142.3091  164.2416 O.3     1  UNL1       -0.3505
     24 C         144.4431  143.5753  165.0376 C.3     1  UNL1        0.1741
     25 C         142.8081  143.0468  159.3283 C.3     1  UNL1        0.0760
     26 C         143.1111  142.0677  158.2331 C.3     1  UNL1        0.0646
     27 C         144.1429  140.9999  158.4460 C.3     1  UNL1        0.2068
     28 O         143.7226  139.5657  158.5743 O.3     1  UNL1       -0.4754
     29 C         143.2591  139.0357  159.8988 C.ar    1  UNL1        0.1387
     30 C         141.8770  138.4696  160.0380 C.ar    1  UNL1        0.0392
     31 C         141.4135  137.9396  161.3624 C.ar    1  UNL1        0.0327
     32 C         142.3321  137.9756  162.5477 C.ar    1  UNL1        0.1403
     33 F         141.8686  137.4456  163.8722 F       1  UNL1       -0.2042
     34 C         143.7142  138.5417  162.4086 C.ar    1  UNL1        0.0327
     35 C         144.1777  139.0717  161.0840 C.ar    1  UNL1        0.0392
@<TRIPOS>BOND
     1    21    22    1
     2    22    11    1
     3    11    12   ar
     4    12    13   ar
     5    13    14    1
     6    13    15   ar
     7    15    16    1
     8    15    17   ar
     9    17    18   ar
    10    18     7    1
    11     7     8    2
    12     7     9   am
    13     1     9    1
    14     1     2    1
    15     2     3    1
    16     3     4    1
    17     4    25    1
    18    25    26    1
    19    26    27    1
    20    27    28    1
    21    28    29    1
    22    29    30   ar
    23    30    31   ar
    24    31    32   ar
    25    32    33    1
    26    32    34   ar
    27    34    35   ar
    28     4     5    1
    29     5     6    1
    30     6    23    1
    31    23    24    1
    32    18    11   ar
    33     6     1    1
    34    35    29   ar
    35    14    19    1
    36    14    20    1
    37     9    10    1
