@<TRIPOS>MOLECULE
*****
 33 37 0 0 0
SMALL
GASTEIGER

@<TRIPOS>ATOM
      1 C         140.5099  140.1449  163.8289 C.ar    1  UNL1        0.0957
      2 C         139.4350  139.3149  163.1922 C.ar    1  UNL1        0.1191
      3 N         138.3699  138.6871  164.0416 N.ar    1  UNL1       -0.2223
      4 C         138.3797  138.8894  165.5279 C.ar    1  UNL1        0.1784
      5 N         137.4681  138.3993  166.6136 N.ar    1  UNL1       -0.2236
      6 C         137.9796  138.9265  167.9214 C.ar    1  UNL1        0.1066
      7 C         139.2073  139.7424  167.6440 C.ar    1  UNL1        0.0910
      8 C         139.4546  139.7195  166.1647 C.ar    1  UNL1        0.0988
      9 N         140.5197  140.3473  165.3153 N.ar    1  UNL1       -0.3481
     10 H         141.2252  140.8921  165.7333 H       1  UNL1        0.1661
     11 C         144.0990  140.9208  160.0346 C.3     1  UNL1        0.1537
     12 N         143.2247  141.1293  161.2355 N.ar    1  UNL1       -0.2487
     13 N         142.2183  140.1556  161.7732 N.ar    1  UNL1       -0.1677
     14 C         141.5750  140.7727  162.9795 C.ar    1  UNL1        0.1193
     15 C         142.1836  142.1278  163.1874 C.ar    1  UNL1        0.0382
     16 C         141.9412  143.1895  164.2188 C.ar    1  UNL1        0.0054
     17 C         142.7184  144.4716  164.1724 C.ar    1  UNL1        0.0298
     18 C         143.7380  144.6920  163.0945 C.ar    1  UNL1        0.1416
     19 F         144.5152  145.9742  163.0481 F       1  UNL1       -0.2041
     20 C         143.9804  143.6303  162.0630 C.ar    1  UNL1        0.0484
     21 C         143.2032  142.3482  162.1095 C.ar    1  UNL1        0.0817
     22 C         140.0414  140.4559  168.6664 C.2     1  UNL1        0.2488
     23 O         140.4139  139.7653  169.9448 O.2     1  UNL1       -0.2700
     24 N         140.5028  141.8600  168.4104 N.am    1  UNL1       -0.3038
     25 H         140.2583  142.3133  167.5714 H       1  UNL1        0.1496
     26 C         141.3368  142.5735  169.4328 C.3     1  UNL1        0.0596
     27 C         140.0947  143.1550  170.0403 C.3     1  UNL1        0.0197
     28 C         142.5789  141.9920  168.8254 C.3     1  UNL1        0.0336
     29 C         143.4130  142.7055  169.8478 C.3     1  UNL1        0.0540
     30 N         144.8811  142.7989  170.1412 N.3     1  UNL1       -0.3221
     31 C         142.1709  143.2870  170.4553 C.3     1  UNL1        0.0336
     32 H         145.0288  143.4071  170.9466 H       1  UNL1        0.1188
     33 H         145.3660  143.1841  169.3308 H       1  UNL1        0.1188
@<TRIPOS>BOND
     1    11    12    1
     2    12    13   ar
     3    13    14   ar
     4    14     1    1
     5     1     2   ar
     6     2     3   ar
     7     3     4   ar
     8     4     5   ar
     9     5     6   ar
    10     6     7   ar
    11     7    22    1
    12    22    23    2
    13    22    24   am
    14    24    26    1
    15    26    27    1
    16    26    28    1
    17    28    29    1
    18    29    30    1
    19    29    31    1
    20     7     8   ar
    21     8     9   ar
    22    14    15   ar
    23    15    16   ar
    24    16    17   ar
    25    17    18   ar
    26    18    19    1
    27    18    20   ar
    28    20    21   ar
    29    21    12   ar
    30     9     1   ar
    31    21    15   ar
    32     8     4    1
    33    31    26    1
    34    24    25    1
    35    30    32    1
    36    30    33    1
    37     9    10    1
@<TRIPOS>MOLECULE
*****
 33 37 0 0 0
SMALL
GASTEIGER

@<TRIPOS>ATOM
      1 C         143.2160  141.1162  162.7542 C.ar    1  UNL1        0.0957
      2 C         144.2464  140.0764  162.4274 C.ar    1  UNL1        0.1191
      3 N         144.6318  139.0535  163.4546 N.ar    1  UNL1       -0.2223
      4 C         143.9867  139.0703  164.8086 C.ar    1  UNL1        0.1784
      5 N         144.1624  138.1966  166.0151 N.ar    1  UNL1       -0.2236
      6 C         143.2406  138.6964  167.0877 C.ar    1  UNL1        0.1066
      7 C         142.4951  139.8790  166.5440 C.ar    1  UNL1        0.0910
      8 C         142.9562  140.1101  165.1355 C.ar    1  UNL1        0.0988
      9 N         142.5708  141.1331  164.1084 N.ar    1  UNL1       -0.3481
     10 H         141.8945  141.8156  164.3229 H       1  UNL1        0.1661
     11 C         142.8492  143.7770  158.2082 C.3     1  UNL1        0.1537
     12 N         142.6620  143.3622  159.6375 N.ar    1  UNL1       -0.2487
     13 N         143.2909  142.1723  160.2998 N.ar    1  UNL1       -0.1677
     14 C         142.8307  142.1392  161.7271 C.ar    1  UNL1        0.1193
     15 C         141.9174  143.3087  161.9469 C.ar    1  UNL1        0.0382
     16 C         141.1673  143.7830  163.1562 C.ar    1  UNL1        0.0054
     17 C         140.3130  145.0131  163.0740 C.ar    1  UNL1        0.0298
     18 C         140.2088  145.7690  161.7826 C.ar    1  UNL1        0.1416
     19 F         139.3544  146.9992  161.7004 F       1  UNL1       -0.2041
     20 C         140.9589  145.2947  160.5733 C.ar    1  UNL1        0.0484
     21 C         141.8132  144.0646  160.6555 C.ar    1  UNL1        0.0817
     22 C         141.4687  140.6885  167.2798 C.2     1  UNL1        0.2488
     23 O         140.4071  141.4249  166.5178 O.2     1  UNL1       -0.2700
     24 N         141.5038  140.7615  168.7776 N.am    1  UNL1       -0.3038
     25 H         142.2006  140.2781  169.2778 H       1  UNL1        0.1496
     26 C         140.4774  141.5709  169.5133 C.3     1  UNL1        0.0596
     27 C         139.6546  140.3347  169.7255 C.3     1  UNL1        0.0197
     28 C         141.3002  142.8070  169.3011 C.3     1  UNL1        0.0336
     29 C         140.2737  143.6165  170.0369 C.3     1  UNL1        0.0540
     30 N         140.1297  145.0630  170.4071 N.3     1  UNL1       -0.3221
     31 C         139.4510  142.3804  170.2491 C.3     1  UNL1        0.0336
     32 H         139.2588  145.1974  170.9207 H       1  UNL1        0.1188
     33 H         140.1160  145.6310  169.5600 H       1  UNL1        0.1188
@<TRIPOS>BOND
     1    11    12    1
     2    12    13   ar
     3    13    14   ar
     4    14     1    1
     5     1     2   ar
     6     2     3   ar
     7     3     4   ar
     8     4     5   ar
     9     5     6   ar
    10     6     7   ar
    11     7    22    1
    12    22    23    2
    13    22    24   am
    14    24    26    1
    15    26    27    1
    16    26    28    1
    17    28    29    1
    18    29    30    1
    19    29    31    1
    20     7     8   ar
    21     8     9   ar
    22    14    15   ar
    23    15    16   ar
    24    16    17   ar
    25    17    18   ar
    26    18    19    1
    27    18    20   ar
    28    20    21   ar
    29    21    12   ar
    30     9     1   ar
    31    21    15   ar
    32     8     4    1
    33    31    26    1
    34    24    25    1
    35    30    32    1
    36    30    33    1
    37     9    10    1
@<TRIPOS>MOLECULE
*****
 33 37 0 0 0
SMALL
GASTEIGER

@<TRIPOS>ATOM
      1 C         138.9952  142.3516  159.8384 C.ar    1  UNL1        0.0957
      2 C         138.4671  140.9639  160.0511 C.ar    1  UNL1        0.1191
      3 N         137.6868  140.2838  158.9655 N.ar    1  UNL1       -0.2223
      4 C         137.4346  140.9913  157.6671 C.ar    1  UNL1        0.1784
      5 N         136.7045  140.5776  156.4239 N.ar    1  UNL1       -0.2236
      6 C         136.7813  141.7096  155.4428 C.ar    1  UNL1        0.1066
      7 C         137.5589  142.8230  156.0797 C.ar    1  UNL1        0.0910
      8 C         137.9627  142.3791  157.4544 C.ar    1  UNL1        0.0988
      9 N         138.7430  143.0593  158.5400 N.ar    1  UNL1       -0.3481
     10 H         139.0896  143.9701  158.4004 H       1  UNL1        0.1661
     11 C         142.9691  144.4828  162.5856 C.3     1  UNL1        0.1537
     12 N         141.6021  144.0114  162.1867 N.ar    1  UNL1       -0.2487
     13 N         141.2468  143.3231  160.9022 N.ar    1  UNL1       -0.1677
     14 C         139.7755  143.0318  160.9240 C.ar    1  UNL1        0.1193
     15 C         139.2215  143.5400  162.2220 C.ar    1  UNL1        0.0382
     16 C         137.8350  143.5298  162.7941 C.ar    1  UNL1        0.0054
     17 C         137.5773  144.1249  164.1466 C.ar    1  UNL1        0.0298
     18 C         138.7062  144.7304  164.9270 C.ar    1  UNL1        0.1416
     19 F         138.4485  145.3256  166.2796 F       1  UNL1       -0.2041
     20 C         140.0928  144.7406  164.3549 C.ar    1  UNL1        0.0484
     21 C         140.3504  144.1455  163.0024 C.ar    1  UNL1        0.0817
     22 C         137.8769  144.1478  155.4520 C.2     1  UNL1        0.2488
     23 O         136.8415  144.8558  154.6294 O.2     1  UNL1       -0.2700
     24 N         139.2303  144.7645  155.6470 N.am    1  UNL1       -0.3038
     25 H         139.9098  144.2998  156.1869 H       1  UNL1        0.1496
     26 C         139.5482  146.0892  155.0193 C.3     1  UNL1        0.0596
     27 C         140.2152  145.3866  153.8741 C.3     1  UNL1        0.0197
     28 C         138.8813  146.7919  156.1644 C.3     1  UNL1        0.0336
     29 C         139.1992  148.1167  155.5368 C.3     1  UNL1        0.0540
     30 N         138.9525  149.5503  155.9027 N.3     1  UNL1       -0.3221
     31 C         139.8662  147.4140  154.3916 C.3     1  UNL1        0.0336
     32 H         139.3430  150.1572  155.1819 H       1  UNL1        0.1188
     33 H         139.3981  149.7544  156.7972 H       1  UNL1        0.1188
@<TRIPOS>BOND
     1    11    12    1
     2    12    13   ar
     3    13    14   ar
     4    14     1    1
     5     1     2   ar
     6     2     3   ar
     7     3     4   ar
     8     4     5   ar
     9     5     6   ar
    10     6     7   ar
    11     7    22    1
    12    22    23    2
    13    22    24   am
    14    24    26    1
    15    26    27    1
    16    26    28    1
    17    28    29    1
    18    29    30    1
    19    29    31    1
    20     7     8   ar
    21     8     9   ar
    22    14    15   ar
    23    15    16   ar
    24    16    17   ar
    25    17    18   ar
    26    18    19    1
    27    18    20   ar
    28    20    21   ar
    29    21    12   ar
    30     9     1   ar
    31    21    15   ar
    32     8     4    1
    33    31    26    1
    34    24    25    1
    35    30    32    1
    36    30    33    1
    37     9    10    1
@<TRIPOS>MOLECULE
*****
 33 37 0 0 0
SMALL
GASTEIGER

@<TRIPOS>ATOM
      1 C         140.2913  139.8649  162.7734 C.ar    1  UNL1        0.0957
      2 C         139.3659  138.7186  162.4917 C.ar    1  UNL1        0.1191
      3 N         138.5573  138.1169  163.6026 N.ar    1  UNL1       -0.2223
      4 C         138.6742  138.6614  164.9953 C.ar    1  UNL1        0.1784
      5 N         138.0085  138.2758  166.2829 N.ar    1  UNL1       -0.2236
      6 C         138.5224  139.1838  167.3606 C.ar    1  UNL1        0.1066
      7 C         139.5058  140.1306  166.7390 C.ar    1  UNL1        0.0910
      8 C         139.5996  139.8078  165.2772 C.ar    1  UNL1        0.0988
      9 N         140.4082  140.4096  164.1663 N.ar    1  UNL1       -0.3481
     10 H         141.0156  141.1619  164.3512 H       1  UNL1        0.1661
     11 C         143.7334  140.4434  158.8113 C.3     1  UNL1        0.1537
     12 N         142.6820  140.7326  159.8414 N.ar    1  UNL1       -0.2487
     13 N         142.1219  139.7522  160.8288 N.ar    1  UNL1       -0.1677
     14 C         141.0999  140.4667  161.6625 C.ar    1  UNL1        0.1193
     15 C         141.0284  141.8887  161.1903 C.ar    1  UNL1        0.0382
     16 C         140.1992  143.0550  161.6398 C.ar    1  UNL1        0.0054
     17 C         140.3479  144.3857  160.9637 C.ar    1  UNL1        0.0298
     18 C         141.3257  144.5500  159.8382 C.ar    1  UNL1        0.1416
     19 F         141.4744  145.8808  159.1621 F       1  UNL1       -0.2041
     20 C         142.1549  143.3837  159.3887 C.ar    1  UNL1        0.0484
     21 C         142.0062  142.0530  160.0647 C.ar    1  UNL1        0.0817
     22 C         140.2626  141.2107  167.4537 C.2     1  UNL1        0.2488
     23 O         140.6973  142.4393  166.7110 O.2     1  UNL1       -0.2700
     24 N         140.5846  141.0622  168.9112 N.am    1  UNL1       -0.3038
     25 H         140.2993  140.2559  169.3987 H       1  UNL1        0.1496
     26 C         141.3413  142.1423  169.6259 C.3     1  UNL1        0.0596
     27 C         140.0469  142.8002  170.0022 C.3     1  UNL1        0.0197
     28 C         142.6357  141.4844  169.2496 C.3     1  UNL1        0.0336
     29 C         143.3925  142.5644  169.9643 C.3     1  UNL1        0.0540
     30 N         144.8429  142.8630  170.2036 N.3     1  UNL1       -0.3221
     31 C         142.0981  143.2223  170.3406 C.3     1  UNL1        0.0336
     32 H         144.9279  143.7185  170.7524 H       1  UNL1        0.1188
     33 H         145.3172  142.9845  169.3087 H       1  UNL1        0.1188
@<TRIPOS>BOND
     1    11    12    1
     2    12    13   ar
     3    13    14   ar
     4    14     1    1
     5     1     2   ar
     6     2     3   ar
     7     3     4   ar
     8     4     5   ar
     9     5     6   ar
    10     6     7   ar
    11     7    22    1
    12    22    23    2
    13    22    24   am
    14    24    26    1
    15    26    27    1
    16    26    28    1
    17    28    29    1
    18    29    30    1
    19    29    31    1
    20     7     8   ar
    21     8     9   ar
    22    14    15   ar
    23    15    16   ar
    24    16    17   ar
    25    17    18   ar
    26    18    19    1
    27    18    20   ar
    28    20    21   ar
    29    21    12   ar
    30     9     1   ar
    31    21    15   ar
    32     8     4    1
    33    31    26    1
    34    24    25    1
    35    30    32    1
    36    30    33    1
    37     9    10    1
@<TRIPOS>MOLECULE
*****
 33 37 0 0 0
SMALL
GASTEIGER

@<TRIPOS>ATOM
      1 C         139.7383  141.2716  162.4416 C.ar    1  UNL1        0.0957
      2 C         138.9030  140.0949  162.0326 C.ar    1  UNL1        0.1191
      3 N         138.3485  139.1700  163.0754 N.ar    1  UNL1       -0.2223
      4 C         138.6293  139.4220  164.5271 C.ar    1  UNL1        0.1784
      5 N         138.2210  138.6890  165.7704 N.ar    1  UNL1       -0.2236
      6 C         138.8040  139.4126  166.9479 C.ar    1  UNL1        0.1066
      7 C         139.5726  140.5930  166.4322 C.ar    1  UNL1        0.0910
      8 C         139.4647  140.5988  164.9361 C.ar    1  UNL1        0.0988
      9 N         140.0192  141.5236  163.8934 N.ar    1  UNL1       -0.3481
     10 H         140.5675  142.2960  164.1619 H       1  UNL1        0.1661
     11 C         140.2672  145.3077  159.0785 C.3     1  UNL1        0.1537
     12 N         140.5359  144.0516  159.8530 N.ar    1  UNL1       -0.2487
     13 N         139.6314  143.4391  160.8810 N.ar    1  UNL1       -0.1677
     14 C         140.2928  142.1964  161.3989 C.ar    1  UNL1        0.1193
     15 C         141.6061  142.0408  160.6910 C.ar    1  UNL1        0.0382
     16 C         142.6845  141.0033  160.7929 C.ar    1  UNL1        0.0054
     17 C         143.9132  141.1123  159.9394 C.ar    1  UNL1        0.0298
     18 C         144.0634  142.2589  158.9840 C.ar    1  UNL1        0.1416
     19 F         145.2922  142.3678  158.1306 F       1  UNL1       -0.2041
     20 C         142.9850  143.2964  158.8821 C.ar    1  UNL1        0.0484
     21 C         141.7564  143.1874  159.7356 C.ar    1  UNL1        0.0817
     22 C         140.3184  141.5922  167.2663 C.2     1  UNL1        0.2488
     23 O         140.6748  142.9313  166.6922 O.2     1  UNL1       -0.2700
     24 N         140.7076  141.2522  168.6744 N.am    1  UNL1       -0.3038
     25 H         140.4736  140.3733  169.0513 H       1  UNL1        0.1496
     26 C         141.4532  142.2513  169.5085 C.3     1  UNL1        0.0596
     27 C         140.1528  142.8627  169.9388 C.3     1  UNL1        0.0197
     28 C         142.7536  141.6400  169.0782 C.3     1  UNL1        0.0336
     29 C         143.4994  142.6392  169.9122 C.3     1  UNL1        0.0540
     30 N         144.9462  142.9135  170.1977 N.3     1  UNL1       -0.3221
     31 C         142.1990  143.2505  170.3425 C.3     1  UNL1        0.0336
     32 H         145.0227  143.7058  170.8355 H       1  UNL1        0.1188
     33 H         145.4295  143.1309  169.3261 H       1  UNL1        0.1188
@<TRIPOS>BOND
     1    11    12    1
     2    12    13   ar
     3    13    14   ar
     4    14     1    1
     5     1     2   ar
     6     2     3   ar
     7     3     4   ar
     8     4     5   ar
     9     5     6   ar
    10     6     7   ar
    11     7    22    1
    12    22    23    2
    13    22    24   am
    14    24    26    1
    15    26    27    1
    16    26    28    1
    17    28    29    1
    18    29    30    1
    19    29    31    1
    20     7     8   ar
    21     8     9   ar
    22    14    15   ar
    23    15    16   ar
    24    16    17   ar
    25    17    18   ar
    26    18    19    1
    27    18    20   ar
    28    20    21   ar
    29    21    12   ar
    30     9     1   ar
    31    21    15   ar
    32     8     4    1
    33    31    26    1
    34    24    25    1
    35    30    32    1
    36    30    33    1
    37     9    10    1
@<TRIPOS>MOLECULE
*****
 33 37 0 0 0
SMALL
GASTEIGER

@<TRIPOS>ATOM
      1 C         141.6799  139.7069  160.2560 C.ar    1  UNL1        0.0957
      2 C         140.3791  140.4502  160.1846 C.ar    1  UNL1        0.1191
      3 N         139.4082  140.1585  159.0791 N.ar    1  UNL1       -0.2223
      4 C         139.7381  139.1234  158.0449 C.ar    1  UNL1        0.1784
      5 N         138.9842  138.6245  156.8479 N.ar    1  UNL1       -0.2236
      6 C         139.8191  137.5728  156.1794 C.ar    1  UNL1        0.1066
      7 C         141.0891  137.4217  156.9633 C.ar    1  UNL1        0.0910
      8 C         141.0390  138.3800  158.1162 C.ar    1  UNL1        0.0988
      9 N         142.0099  138.6717  159.2217 N.ar    1  UNL1       -0.3481
     10 H         142.8637  138.1838  159.2685 H       1  UNL1        0.1661
     11 C         145.6741  141.7870  163.0129 C.3     1  UNL1        0.1537
     12 N         144.4867  140.9547  162.6288 N.ar    1  UNL1       -0.2487
     13 N         143.7746  140.9908  161.3091 N.ar    1  UNL1       -0.1677
     14 C         142.6508  139.9987  161.3616 C.ar    1  UNL1        0.1193
     15 C         142.6683  139.3495  162.7137 C.ar    1  UNL1        0.0382
     16 C         141.7977  138.2967  163.3329 C.ar    1  UNL1        0.0054
     17 C         142.0617  137.8348  164.7354 C.ar    1  UNL1        0.0298
     18 C         143.1964  138.4257  165.5186 C.ar    1  UNL1        0.1416
     19 F         143.4604  137.9637  166.9211 F       1  UNL1       -0.2041
     20 C         144.0670  139.4785  164.8993 C.ar    1  UNL1        0.0484
     21 C         143.8030  139.9404  163.4969 C.ar    1  UNL1        0.0817
     22 C         142.2120  136.4779  156.6494 C.2     1  UNL1        0.2488
     23 O         143.6130  136.9970  156.5167 O.2     1  UNL1       -0.2700
     24 N         141.9338  135.0152  156.4681 N.am    1  UNL1       -0.3038
     25 H         141.0142  134.6745  156.5552 H       1  UNL1        0.1496
     26 C         143.0567  134.0715  156.1542 C.3     1  UNL1        0.0596
     27 C         142.6958  134.1261  154.6992 C.3     1  UNL1        0.0197
     28 C         143.4175  134.0169  157.6090 C.3     1  UNL1        0.0336
     29 C         144.5405  133.0732  157.2951 C.3     1  UNL1        0.0540
     30 N         145.5897  132.3673  158.1019 N.3     1  UNL1       -0.3221
     31 C         144.1796  133.1278  155.8403 C.3     1  UNL1        0.0336
     32 H         146.1729  131.8042  157.4829 H       1  UNL1        0.1188
     33 H         145.1402  131.7622  158.7891 H       1  UNL1        0.1188
@<TRIPOS>BOND
     1    11    12    1
     2    12    13   ar
     3    13    14   ar
     4    14     1    1
     5     1     2   ar
     6     2     3   ar
     7     3     4   ar
     8     4     5   ar
     9     5     6   ar
    10     6     7   ar
    11     7    22    1
    12    22    23    2
    13    22    24   am
    14    24    26    1
    15    26    27    1
    16    26    28    1
    17    28    29    1
    18    29    30    1
    19    29    31    1
    20     7     8   ar
    21     8     9   ar
    22    14    15   ar
    23    15    16   ar
    24    16    17   ar
    25    17    18   ar
    26    18    19    1
    27    18    20   ar
    28    20    21   ar
    29    21    12   ar
    30     9     1   ar
    31    21    15   ar
    32     8     4    1
    33    31    26    1
    34    24    25    1
    35    30    32    1
    36    30    33    1
    37     9    10    1
@<TRIPOS>MOLECULE
*****
 33 37 0 0 0
SMALL
GASTEIGER

@<TRIPOS>ATOM
      1 C         140.3887  143.2324  165.2780 C.ar    1  UNL1        0.0957
      2 C         139.2126  144.1391  165.4888 C.ar    1  UNL1        0.1191
      3 N         138.7426  145.0289  164.3764 N.ar    1  UNL1       -0.2223
      4 C         139.4487  145.0119  163.0531 C.ar    1  UNL1        0.1784
      5 N         139.2150  145.7713  161.7809 N.ar    1  UNL1       -0.2236
      6 C         140.2466  145.3339  160.7837 C.ar    1  UNL1        0.1066
      7 C         141.1180  144.3042  161.4397 C.ar    1  UNL1        0.0910
      8 C         140.6249  144.1051  162.8422 C.ar    1  UNL1        0.0988
      9 N         141.0949  143.2154  163.9546 N.ar    1  UNL1       -0.3481
     10 H         141.8669  142.6203  163.8162 H       1  UNL1        0.1661
     11 C         141.2133  141.2147  170.0873 C.3     1  UNL1        0.1537
     12 N         141.2378  141.4152  168.6009 N.ar    1  UNL1       -0.2487
     13 N         140.5780  142.5345  167.8513 N.ar    1  UNL1       -0.1677
     14 C         140.8587  142.3426  166.3904 C.ar    1  UNL1        0.1193
     15 C         141.6920  141.1048  166.2371 C.ar    1  UNL1        0.0382
     16 C         142.2677  140.4256  165.0300 C.ar    1  UNL1        0.0054
     17 C         143.0777  139.1732  165.1891 C.ar    1  UNL1        0.0298
     18 C         143.3119  138.6000  166.5553 C.ar    1  UNL1        0.1416
     19 F         144.1220  137.3475  166.7144 F       1  UNL1       -0.2041
     20 C         142.7362  139.2792  167.7624 C.ar    1  UNL1        0.0484
     21 C         141.9263  140.5316  167.6033 C.ar    1  UNL1        0.0817
     22 C         142.2788  143.5975  160.8046 C.2     1  UNL1        0.2488
     23 O         143.6649  143.8002  161.3410 O.2     1  UNL1       -0.2700
     24 N         142.0535  142.6882  159.6331 N.am    1  UNL1       -0.3038
     25 H         141.1437  142.5552  159.2810 H       1  UNL1        0.1496
     26 C         143.2142  141.9816  158.9980 C.3     1  UNL1        0.0596
     27 C         142.9681  140.7894  159.8746 C.3     1  UNL1        0.0197
     28 C         143.4603  143.1737  158.1215 C.3     1  UNL1        0.0336
     29 C         144.6212  142.4671  157.4864 C.3     1  UNL1        0.0540
     30 N         145.6160  142.8104  156.4176 N.3     1  UNL1       -0.3221
     31 C         144.3750  141.2750  158.3629 C.3     1  UNL1        0.0336
     32 H         146.2561  142.0274  156.2847 H       1  UNL1        0.1188
     33 H         146.1437  143.6373  156.6971 H       1  UNL1        0.1188
@<TRIPOS>BOND
     1    11    12    1
     2    12    13   ar
     3    13    14   ar
     4    14     1    1
     5     1     2   ar
     6     2     3   ar
     7     3     4   ar
     8     4     5   ar
     9     5     6   ar
    10     6     7   ar
    11     7    22    1
    12    22    23    2
    13    22    24   am
    14    24    26    1
    15    26    27    1
    16    26    28    1
    17    28    29    1
    18    29    30    1
    19    29    31    1
    20     7     8   ar
    21     8     9   ar
    22    14    15   ar
    23    15    16   ar
    24    16    17   ar
    25    17    18   ar
    26    18    19    1
    27    18    20   ar
    28    20    21   ar
    29    21    12   ar
    30     9     1   ar
    31    21    15   ar
    32     8     4    1
    33    31    26    1
    34    24    25    1
    35    30    32    1
    36    30    33    1
    37     9    10    1
@<TRIPOS>MOLECULE
*****
 33 37 0 0 0
SMALL
GASTEIGER

@<TRIPOS>ATOM
      1 C         139.1494  142.7868  164.3856 C.ar    1  UNL1        0.0957
      2 C         138.2736  143.9932  164.5508 C.ar    1  UNL1        0.1191
      3 N         138.3453  145.1139  163.5563 N.ar    1  UNL1       -0.2223
      4 C         139.2927  145.0281  162.3966 C.ar    1  UNL1        0.1784
      5 N         139.5817  145.9691  161.2649 N.ar    1  UNL1       -0.2236
      6 C         140.6361  145.3443  160.4001 C.ar    1  UNL1        0.1066
      7 C         140.9988  144.0170  160.9975 C.ar    1  UNL1        0.0910
      8 C         140.1686  143.8216  162.2314 C.ar    1  UNL1        0.0988
      9 N         140.0969  142.7010  163.2259 N.ar    1  UNL1       -0.3481
     10 H         140.6718  141.9091  163.1174 H       1  UNL1        0.1661
     11 C         137.8619  138.2428  166.7469 C.3     1  UNL1        0.1537
     12 N         138.4860  139.5775  166.4655 N.ar    1  UNL1       -0.2487
     13 N         138.2565  140.4183  165.2446 N.ar    1  UNL1       -0.1677
     14 C         139.0778  141.6661  165.3801 C.ar    1  UNL1        0.1193
     15 C         139.8149  141.5966  166.6847 C.ar    1  UNL1        0.0382
     16 C         140.7718  142.5419  167.3484 C.ar    1  UNL1        0.0054
     17 C         141.3630  142.1963  168.6829 C.ar    1  UNL1        0.0298
     18 C         140.9973  140.9055  169.3537 C.ar    1  UNL1        0.1416
     19 F         141.5885  140.5600  170.6883 F       1  UNL1       -0.2041
     20 C         140.0403  139.9602  168.6900 C.ar    1  UNL1        0.0484
     21 C         139.4491  140.3057  167.3555 C.ar    1  UNL1        0.0817
     22 C         142.0137  143.0542  160.4560 C.2     1  UNL1        0.2488
     23 O         143.4323  143.4962  160.2512 O.2     1  UNL1       -0.2700
     24 N         141.6098  141.6494  160.1194 N.am    1  UNL1       -0.3038
     25 H         140.6787  141.3592  160.2538 H       1  UNL1        0.1496
     26 C         142.6246  140.6866  159.5779 C.3     1  UNL1        0.0596
     27 C         142.4013  141.2279  158.1968 C.3     1  UNL1        0.0197
     28 C         142.8479  140.1454  160.9589 C.3     1  UNL1        0.0336
     29 C         143.8628  139.1825  160.4174 C.3     1  UNL1        0.0540
     30 N         144.7383  138.1190  161.0110 N.3     1  UNL1       -0.3221
     31 C         143.6395  139.7238  159.0364 C.3     1  UNL1        0.0336
     32 H         145.2956  137.6869  160.2741 H       1  UNL1        0.1188
     33 H         144.1567  137.4100  161.4576 H       1  UNL1        0.1188
@<TRIPOS>BOND
     1    11    12    1
     2    12    13   ar
     3    13    14   ar
     4    14     1    1
     5     1     2   ar
     6     2     3   ar
     7     3     4   ar
     8     4     5   ar
     9     5     6   ar
    10     6     7   ar
    11     7    22    1
    12    22    23    2
    13    22    24   am
    14    24    26    1
    15    26    27    1
    16    26    28    1
    17    28    29    1
    18    29    30    1
    19    29    31    1
    20     7     8   ar
    21     8     9   ar
    22    14    15   ar
    23    15    16   ar
    24    16    17   ar
    25    17    18   ar
    26    18    19    1
    27    18    20   ar
    28    20    21   ar
    29    21    12   ar
    30     9     1   ar
    31    21    15   ar
    32     8     4    1
    33    31    26    1
    34    24    25    1
    35    30    32    1
    36    30    33    1
    37     9    10    1
@<TRIPOS>MOLECULE
*****
 33 37 0 0 0
SMALL
GASTEIGER

@<TRIPOS>ATOM
      1 C         138.5001  142.1993  160.3669 C.ar    1  UNL1        0.0957
      2 C         138.2650  140.7211  160.4635 C.ar    1  UNL1        0.1191
      3 N         137.9325  139.9324  159.2317 N.ar    1  UNL1       -0.2223
      4 C         137.8351  140.6219  157.9032 C.ar    1  UNL1        0.1784
      5 N         137.5264  140.1107  156.5272 N.ar    1  UNL1       -0.2236
      6 C         137.5707  141.2730  155.5801 C.ar    1  UNL1        0.1066
      7 C         137.9068  142.5026  156.3708 C.ar    1  UNL1        0.0910
      8 C         138.0702  142.1002  157.8065 C.ar    1  UNL1        0.0988
      9 N         138.4027  142.8889  159.0383 N.ar    1  UNL1       -0.3481
     10 H         138.5570  143.8592  158.9748 H       1  UNL1        0.1661
     11 C         138.0653  144.7122  164.9904 C.3     1  UNL1        0.1537
     12 N         138.6327  144.1430  163.7239 N.ar    1  UNL1       -0.2487
     13 N         137.8767  143.3567  162.6943 N.ar    1  UNL1       -0.1677
     14 C         138.8326  142.9880  161.5987 C.ar    1  UNL1        0.1193
     15 C         140.1794  143.5465  161.9512 C.ar    1  UNL1        0.0382
     16 C         141.5022  143.4973  161.2458 C.ar    1  UNL1        0.0054
     17 C         142.7016  144.1619  161.8539 C.ar    1  UNL1        0.0298
     18 C         142.5781  144.8758  163.1674 C.ar    1  UNL1        0.1416
     19 F         143.7775  145.5404  163.7754 F       1  UNL1       -0.2041
     20 C         141.2552  144.9250  163.8727 C.ar    1  UNL1        0.0484
     21 C         140.0559  144.2604  163.2646 C.ar    1  UNL1        0.0817
     22 C         138.0538  143.8909  155.8220 C.2     1  UNL1        0.2488
     23 O         136.8772  144.5776  155.1940 O.2     1  UNL1       -0.2700
     24 N         139.3772  144.5925  155.9011 N.am    1  UNL1       -0.3038
     25 H         140.1494  144.1419  156.3133 H       1  UNL1        0.1496
     26 C         139.5240  145.9808  155.3524 C.3     1  UNL1        0.0596
     27 C         140.1535  145.4232  154.1102 C.3     1  UNL1        0.0197
     28 C         138.8946  146.5384  156.5944 C.3     1  UNL1        0.0336
     29 C         139.0414  147.9267  156.0457 C.3     1  UNL1        0.0540
     30 N         138.7002  149.3026  156.5359 N.3     1  UNL1       -0.3221
     31 C         139.6709  147.3691  154.8036 C.3     1  UNL1        0.0336
     32 H         138.9747  149.9911  155.8352 H       1  UNL1        0.1188
     33 H         139.1984  149.4866  157.4067 H       1  UNL1        0.1188
@<TRIPOS>BOND
     1    11    12    1
     2    12    13   ar
     3    13    14   ar
     4    14     1    1
     5     1     2   ar
     6     2     3   ar
     7     3     4   ar
     8     4     5   ar
     9     5     6   ar
    10     6     7   ar
    11     7    22    1
    12    22    23    2
    13    22    24   am
    14    24    26    1
    15    26    27    1
    16    26    28    1
    17    28    29    1
    18    29    30    1
    19    29    31    1
    20     7     8   ar
    21     8     9   ar
    22    14    15   ar
    23    15    16   ar
    24    16    17   ar
    25    17    18   ar
    26    18    19    1
    27    18    20   ar
    28    20    21   ar
    29    21    12   ar
    30     9     1   ar
    31    21    15   ar
    32     8     4    1
    33    31    26    1
    34    24    25    1
    35    30    32    1
    36    30    33    1
    37     9    10    1
