@<TRIPOS>MOLECULE
*****
 41 44 0 0 0
SMALL
GASTEIGER

@<TRIPOS>ATOM
      1 C         143.1372  142.7892  165.8266 C.ar    1  UNL1        0.2220
      2 N         143.6449  142.7941  167.2381 N.ar    1  UNL1       -0.2110
      3 C         143.0186  141.8961  168.2635 C.ar    1  UNL1        0.1160
      4 C         141.8846  140.9933  167.8773 C.ar    1  UNL1        0.1085
      5 CL        141.2583  140.0953  168.9027 Cl      1  UNL1       -0.0777
      6 C         141.3770  140.9884  166.4658 C.ar    1  UNL1        0.1472
      7 N         142.0033  141.8864  165.4405 N.ar    1  UNL1       -0.1976
      8 N         143.7635  143.6872  164.8012 N.pl3   1  UNL1       -0.2801
      9 H         144.6110  144.1467  165.0011 H       1  UNL1        0.1552
     10 C         140.0804  145.9280  161.9006 C.3     1  UNL1        0.0307
     11 C         141.2570  145.0055  162.0210 C.ar    1  UNL1       -0.0244
     12 C         141.9220  144.8076  163.3508 C.ar    1  UNL1        0.0132
     13 C         143.0986  143.8851  163.4712 C.ar    1  UNL1        0.0846
     14 C         143.6104  143.1605  162.2616 C.ar    1  UNL1        0.1513
     15 C         142.9454  143.3584  160.9317 C.ar    1  UNL1        0.0336
     16 C         141.7688  144.2809  160.8114 C.ar    1  UNL1       -0.0233
     17 C         141.1039  144.4788  159.4814 C.3     1  UNL1        0.0249
     18 C         140.0327  143.5307  159.0300 C.3     1  UNL1        0.0217
     19 C         139.3678  143.7286  157.7001 C.3     1  UNL1        0.0725
     20 N         139.7740  144.8745  156.8215 N.3     1  UNL1       -0.2715
     21 C         139.1091  145.0724  155.4916 C.3     1  UNL1        0.0896
     22 C         140.8452  145.8226  157.2729 C.3     1  UNL1        0.0725
     23 C         141.5101  145.6247  158.6029 C.3     1  UNL1        0.0217
     24 O         144.7870  142.2380  162.3820 O.3     1  UNL1       -0.4779
     25 C         144.5803  140.8068  162.7803 C.3     1  UNL1        0.1662
     26 C         145.1793  140.2888  164.0543 C.3     1  UNL1        0.0472
     27 C         143.7745  139.8934  161.9048 C.3     1  UNL1        0.0472
     28 N         140.2430  140.0856  166.0797 N.pl3   1  UNL1       -0.2961
     29 H         139.4334  140.0457  166.6383 H       1  UNL1        0.1537
     30 C         140.3427  139.2435  164.8424 C.ar    1  UNL1        0.0667
     31 C         140.9949  137.8941  164.9041 C.ar    1  UNL1        0.0159
     32 C         141.0945  137.0520  163.6668 C.ar    1  UNL1        0.0014
     33 C         140.5420  137.5593  162.3678 C.ar    1  UNL1        0.0014
     34 C         139.8899  138.9087  162.3061 C.ar    1  UNL1        0.0196
     35 C         139.7902  139.7508  163.5435 C.ar    1  UNL1        0.1189
     36 S         139.1381  141.1002  163.4818 S.O2    1  UNL1        0.0082
     37 O         140.2599  141.6030  162.6223 O.2     1  UNL1       -0.1686
     38 O         138.0163  140.5973  164.3412 O.2     1  UNL1       -0.1686
     39 C         138.4859  142.4496  163.4201 C.3     1  UNL1        0.1340
     40 C         137.8902  142.9365  162.1324 C.3     1  UNL1        0.0257
     41 C         138.4294  143.3120  164.6460 C.3     1  UNL1        0.0257
@<TRIPOS>BOND
     1    10    11    1
     2    11    12   ar
     3    12    13   ar
     4    13     8    1
     5     8     1    1
     6     1     2   ar
     7     2     3   ar
     8     3     4   ar
     9     4     5    1
    10     4     6   ar
    11     6    28    1
    12    28    30    1
    13    30    31   ar
    14    31    32   ar
    15    32    33   ar
    16    33    34   ar
    17    34    35   ar
    18    35    36    1
    19    36    37    2
    20    36    38    2
    21    36    39    1
    22    39    40    1
    23    39    41    1
    24     6     7   ar
    25    13    14   ar
    26    14    24    1
    27    24    25    1
    28    25    26    1
    29    25    27    1
    30    14    15   ar
    31    15    16   ar
    32    16    17    1
    33    17    18    1
    34    18    19    1
    35    19    20    1
    36    20    21    1
    37    20    22    1
    38    22    23    1
    39    16    11   ar
    40    23    17    1
    41     7     1   ar
    42    35    30   ar
    43     8     9    1
    44    28    29    1
@<TRIPOS>MOLECULE
*****
 41 44 0 0 0
SMALL
GASTEIGER

@<TRIPOS>ATOM
      1 C         142.3903  138.3892  161.0737 C.ar    1  UNL1        0.2220
      2 N         142.4617  137.7063  159.7400 N.ar    1  UNL1       -0.2110
      3 C         143.0153  138.4363  158.5523 C.ar    1  UNL1        0.1160
      4 C         143.4975  139.8493  158.6983 C.ar    1  UNL1        0.1085
      5 CL        144.0511  140.5793  157.5106 Cl      1  UNL1       -0.0777
      6 C         143.4260  140.5321  160.0319 C.ar    1  UNL1        0.1472
      7 N         142.8724  139.8021  161.2196 N.ar    1  UNL1       -0.1976
      8 N         141.8367  137.6592  162.2614 N.pl3   1  UNL1       -0.2801
      9 H         141.6896  136.6868  162.2168 H       1  UNL1        0.1552
     10 C         143.0491  139.0630  167.1152 C.3     1  UNL1        0.0307
     11 C         142.1134  139.1127  165.9439 C.ar    1  UNL1       -0.0244
     12 C         142.4429  138.3611  164.6883 C.ar    1  UNL1        0.0132
     13 C         141.5071  138.4109  163.5170 C.ar    1  UNL1        0.0846
     14 C         140.2420  139.2122  163.6012 C.ar    1  UNL1        0.1513
     15 C         139.9125  139.9638  164.8568 C.ar    1  UNL1        0.0336
     16 C         140.8482  139.9141  166.0281 C.ar    1  UNL1       -0.0233
     17 C         140.5186  140.6657  167.2837 C.3     1  UNL1        0.0249
     18 C         140.9702  142.0867  167.4476 C.3     1  UNL1        0.0217
     19 C         140.6407  142.8384  168.7031 C.3     1  UNL1        0.0725
     20 N         139.8596  142.1690  169.7949 N.3     1  UNL1       -0.2715
     21 C         139.5301  142.9207  171.0504 C.3     1  UNL1        0.0896
     22 C         139.4080  140.7480  169.6310 C.3     1  UNL1        0.0725
     23 C         139.7376  139.9964  168.3754 C.3     1  UNL1        0.0217
     24 O         139.3062  139.2619  162.4299 O.3     1  UNL1       -0.4779
     25 C         138.8213  140.5838  161.9130 C.3     1  UNL1        0.1662
     26 C         139.6628  141.3666  160.9491 C.3     1  UNL1        0.0472
     27 C         137.4948  141.1230  162.3600 C.3     1  UNL1        0.0472
     28 N         143.9082  141.9450  160.1779 N.pl3   1  UNL1       -0.2961
     29 H         144.8695  142.1465  160.1111 H       1  UNL1        0.1537
     30 C         142.9256  143.0510  160.4257 C.ar    1  UNL1        0.0667
     31 C         142.1874  143.6700  159.2760 C.ar    1  UNL1        0.0159
     32 C         141.2049  144.7759  159.5238 C.ar    1  UNL1        0.0014
     33 C         140.9604  145.2629  160.9214 C.ar    1  UNL1        0.0014
     34 C         141.6986  144.6438  162.0711 C.ar    1  UNL1        0.0196
     35 C         142.6812  143.5378  161.8232 C.ar    1  UNL1        0.1189
     36 S         143.4194  142.9188  162.9730 S.O2    1  UNL1        0.0082
     37 O         144.6813  143.5967  162.5278 O.2     1  UNL1       -0.1686
     38 O         142.1575  142.2409  163.4182 O.2     1  UNL1       -0.1686
     39 C         144.1576  142.2997  164.1227 C.3     1  UNL1        0.1340
     40 C         145.0460  141.1133  163.8920 C.3     1  UNL1        0.0257
     41 C         144.0073  142.8671  165.5031 C.3     1  UNL1        0.0257
@<TRIPOS>BOND
     1    10    11    1
     2    11    12   ar
     3    12    13   ar
     4    13     8    1
     5     8     1    1
     6     1     2   ar
     7     2     3   ar
     8     3     4   ar
     9     4     5    1
    10     4     6   ar
    11     6    28    1
    12    28    30    1
    13    30    31   ar
    14    31    32   ar
    15    32    33   ar
    16    33    34   ar
    17    34    35   ar
    18    35    36    1
    19    36    37    2
    20    36    38    2
    21    36    39    1
    22    39    40    1
    23    39    41    1
    24     6     7   ar
    25    13    14   ar
    26    14    24    1
    27    24    25    1
    28    25    26    1
    29    25    27    1
    30    14    15   ar
    31    15    16   ar
    32    16    17    1
    33    17    18    1
    34    18    19    1
    35    19    20    1
    36    20    21    1
    37    20    22    1
    38    22    23    1
    39    16    11   ar
    40    23    17    1
    41     7     1   ar
    42    35    30   ar
    43     8     9    1
    44    28    29    1
@<TRIPOS>MOLECULE
*****
 41 44 0 0 0
SMALL
GASTEIGER

@<TRIPOS>ATOM
      1 C         141.7681  144.6291  160.3239 C.ar    1  UNL1        0.2220
      2 N         141.9362  145.4561  159.0838 N.ar    1  UNL1       -0.2110
      3 C         141.5783  144.8818  157.7451 C.ar    1  UNL1        0.1160
      4 C         141.0522  143.4805  157.6465 C.ar    1  UNL1        0.1085
      5 CL        140.6943  142.9062  156.3079 Cl      1  UNL1       -0.0777
      6 C         140.8841  142.6536  158.8866 C.ar    1  UNL1        0.1472
      7 N         141.2420  143.2279  160.2253 N.ar    1  UNL1       -0.1976
      8 N         142.1260  145.2034  161.6626 N.pl3   1  UNL1       -0.2801
      9 H         142.6179  146.0545  161.7176 H       1  UNL1        0.1552
     10 C         138.5598  144.0368  165.2572 C.3     1  UNL1        0.0307
     11 C         139.9514  143.8977  164.7149 C.ar    1  UNL1       -0.0244
     12 C         140.3429  144.6201  163.4600 C.ar    1  UNL1        0.0132
     13 C         141.7345  144.4810  162.9176 C.ar    1  UNL1        0.0846
     14 C         142.7345  143.6195  163.6301 C.ar    1  UNL1        0.1513
     15 C         142.3430  142.8971  164.8850 C.ar    1  UNL1        0.0336
     16 C         140.9514  143.0362  165.4274 C.ar    1  UNL1       -0.0233
     17 C         140.5599  142.3138  166.6824 C.3     1  UNL1        0.0249
     18 C         140.6898  142.9959  168.0120 C.3     1  UNL1        0.0217
     19 C         140.2983  142.2735  169.2669 C.3     1  UNL1        0.0725
     20 N         139.7769  140.8690  169.1923 N.3     1  UNL1       -0.2715
     21 C         139.3855  140.1466  170.4472 C.3     1  UNL1        0.0896
     22 C         139.6470  140.1869  167.8627 C.3     1  UNL1        0.0725
     23 C         140.0386  140.9093  166.6077 C.3     1  UNL1        0.0217
     24 O         144.1261  143.4804  163.0877 O.3     1  UNL1       -0.4779
     25 C         144.6751  142.1210  162.7707 C.3     1  UNL1        0.1662
     26 C         144.1348  141.3471  161.6048 C.3     1  UNL1        0.0472
     27 C         145.7644  141.5354  163.6196 C.3     1  UNL1        0.0472
     28 N         140.3580  141.2523  158.7881 N.pl3   1  UNL1       -0.2961
     29 H         139.5336  141.0704  158.2816 H       1  UNL1        0.1537
     30 C         141.0880  140.1280  159.4612 C.ar    1  UNL1        0.0667
     31 C         142.1998  139.4203  158.7449 C.ar    1  UNL1        0.0159
     32 C         142.9297  138.2961  159.4180 C.ar    1  UNL1        0.0014
     33 C         142.5480  137.8795  160.8076 C.ar    1  UNL1        0.0014
     34 C         141.4362  138.5872  161.5239 C.ar    1  UNL1        0.0196
     35 C         140.7062  139.7115  160.8507 C.ar    1  UNL1        0.1189
     36 S         139.5945  140.4192  161.5670 S.O2    1  UNL1        0.0082
     37 O         138.6078  139.8670  160.5813 O.2     1  UNL1       -0.1686
     38 O         140.5811  140.9714  162.5528 O.2     1  UNL1       -0.1686
     39 C         138.4827  141.1269  162.2834 C.3     1  UNL1        0.1340
     40 C         137.9288  142.4064  161.7300 C.3     1  UNL1        0.0257
     41 C         137.9249  140.5552  163.5530 C.3     1  UNL1        0.0257
@<TRIPOS>BOND
     1    10    11    1
     2    11    12   ar
     3    12    13   ar
     4    13     8    1
     5     8     1    1
     6     1     2   ar
     7     2     3   ar
     8     3     4   ar
     9     4     5    1
    10     4     6   ar
    11     6    28    1
    12    28    30    1
    13    30    31   ar
    14    31    32   ar
    15    32    33   ar
    16    33    34   ar
    17    34    35   ar
    18    35    36    1
    19    36    37    2
    20    36    38    2
    21    36    39    1
    22    39    40    1
    23    39    41    1
    24     6     7   ar
    25    13    14   ar
    26    14    24    1
    27    24    25    1
    28    25    26    1
    29    25    27    1
    30    14    15   ar
    31    15    16   ar
    32    16    17    1
    33    17    18    1
    34    18    19    1
    35    19    20    1
    36    20    21    1
    37    20    22    1
    38    22    23    1
    39    16    11   ar
    40    23    17    1
    41     7     1   ar
    42    35    30   ar
    43     8     9    1
    44    28    29    1
@<TRIPOS>MOLECULE
*****
 41 44 0 0 0
SMALL
GASTEIGER

@<TRIPOS>ATOM
      1 C         138.0268  140.4911  161.6305 C.ar    1  UNL1        0.2220
      2 N         137.2143  140.4923  160.3695 N.ar    1  UNL1       -0.2110
      3 C         137.8413  140.0731  159.0729 C.ar    1  UNL1        0.1160
      4 C         139.2809  139.6527  159.0373 C.ar    1  UNL1        0.1085
      5 CL        139.9079  139.2335  157.7408 Cl      1  UNL1       -0.0777
      6 C         140.0932  139.6516  160.2983 C.ar    1  UNL1        0.1472
      7 N         139.4662  140.0708  161.5948 N.ar    1  UNL1       -0.1976
      8 N         137.3997  140.9103  162.9270 N.pl3   1  UNL1       -0.2801
      9 H         136.4194  140.9387  163.0133 H       1  UNL1        0.1552
     10 C         139.6157  139.6897  167.4657 C.3     1  UNL1        0.0307
     11 C         139.3743  140.6760  166.3616 C.ar    1  UNL1       -0.0244
     12 C         138.5077  140.3001  165.1964 C.ar    1  UNL1        0.0132
     13 C         138.2663  141.2863  164.0923 C.ar    1  UNL1        0.0846
     14 C         138.8915  142.6484  164.1534 C.ar    1  UNL1        0.1513
     15 C         139.7580  143.0243  165.3185 C.ar    1  UNL1        0.0336
     16 C         139.9995  142.0381  166.4227 C.ar    1  UNL1       -0.0233
     17 C         140.8661  142.4140  167.5879 C.3     1  UNL1        0.0249
     18 C         140.2854  143.1839  168.7369 C.3     1  UNL1        0.0217
     19 C         141.1519  143.5599  169.9021 C.3     1  UNL1        0.0725
     20 N         142.5992  143.1660  169.9183 N.3     1  UNL1       -0.2715
     21 C         143.4658  143.5419  171.0835 C.3     1  UNL1        0.0896
     22 C         143.1799  142.3961  168.7694 C.3     1  UNL1        0.0725
     23 C         142.3133  142.0201  167.6042 C.3     1  UNL1        0.0217
     24 O         138.6501  143.6346  163.0492 O.3     1  UNL1       -0.4779
     25 C         139.8113  144.2537  162.3294 C.3     1  UNL1        0.1662
     26 C         139.8536  145.7371  162.1105 C.3     1  UNL1        0.0472
     27 C         140.9303  143.3895  161.8284 C.3     1  UNL1        0.0472
     28 N         141.5327  139.2312  160.2627 N.pl3   1  UNL1       -0.2961
     29 H         141.7715  138.3151  159.9924 H       1  UNL1        0.1537
     30 C         142.6084  140.2066  160.6389 C.ar    1  UNL1        0.0667
     31 C         143.1337  141.1737  159.6197 C.ar    1  UNL1        0.0159
     32 C         144.2094  142.1491  159.9959 C.ar    1  UNL1        0.0014
     33 C         144.7598  142.1573  161.3913 C.ar    1  UNL1        0.0014
     34 C         144.2345  141.1901  162.4105 C.ar    1  UNL1        0.0196
     35 C         143.1588  140.2147  162.0342 C.ar    1  UNL1        0.1189
     36 S         142.6334  139.2476  163.0534 S.O2    1  UNL1        0.0082
     37 O         141.9523  140.3745  163.7717 O.2     1  UNL1       -0.1686
     38 O         143.3145  138.1206  162.3350 O.2     1  UNL1       -0.1686
     39 C         142.1081  138.2804  164.0725 C.3     1  UNL1        0.1340
     40 C         141.0691  137.2711  163.6829 C.3     1  UNL1        0.0257
     41 C         142.6218  138.3226  165.4811 C.3     1  UNL1        0.0257
@<TRIPOS>BOND
     1    10    11    1
     2    11    12   ar
     3    12    13   ar
     4    13     8    1
     5     8     1    1
     6     1     2   ar
     7     2     3   ar
     8     3     4   ar
     9     4     5    1
    10     4     6   ar
    11     6    28    1
    12    28    30    1
    13    30    31   ar
    14    31    32   ar
    15    32    33   ar
    16    33    34   ar
    17    34    35   ar
    18    35    36    1
    19    36    37    2
    20    36    38    2
    21    36    39    1
    22    39    40    1
    23    39    41    1
    24     6     7   ar
    25    13    14   ar
    26    14    24    1
    27    24    25    1
    28    25    26    1
    29    25    27    1
    30    14    15   ar
    31    15    16   ar
    32    16    17    1
    33    17    18    1
    34    18    19    1
    35    19    20    1
    36    20    21    1
    37    20    22    1
    38    22    23    1
    39    16    11   ar
    40    23    17    1
    41     7     1   ar
    42    35    30   ar
    43     8     9    1
    44    28    29    1
@<TRIPOS>MOLECULE
*****
 41 44 0 0 0
SMALL
GASTEIGER

@<TRIPOS>ATOM
      1 C         141.7766  144.5186  160.2903 C.ar    1  UNL1        0.2220
      2 N         141.5829  145.3651  159.0672 N.ar    1  UNL1       -0.2110
      3 C         141.1254  144.7361  157.7845 C.ar    1  UNL1        0.1160
      4 C         140.8617  143.2606  157.7251 C.ar    1  UNL1        0.1085
      5 CL        140.4042  142.6316  156.4424 Cl      1  UNL1       -0.0777
      6 C         141.0554  142.4142  158.9482 C.ar    1  UNL1        0.1472
      7 N         141.5128  143.0432  160.2308 N.ar    1  UNL1       -0.1976
      8 N         142.2340  145.1476  161.5729 N.pl3   1  UNL1       -0.2801
      9 H         142.4644  146.1044  161.5972 H       1  UNL1        0.1552
     10 C         145.0423  142.1558  164.7609 C.3     1  UNL1        0.0307
     11 C         143.7447  142.8227  164.4125 C.ar    1  UNL1       -0.0244
     12 C         143.6381  143.6517  163.1669 C.ar    1  UNL1        0.0132
     13 C         142.3405  144.3186  162.8186 C.ar    1  UNL1        0.0846
     14 C         141.1494  144.1566  163.7158 C.ar    1  UNL1        0.1513
     15 C         141.2559  143.3277  164.9613 C.ar    1  UNL1        0.0336
     16 C         142.5536  142.6607  165.3097 C.ar    1  UNL1       -0.0233
     17 C         142.6601  141.8318  166.5553 C.3     1  UNL1        0.0249
     18 C         142.9957  142.4839  167.8638 C.3     1  UNL1        0.0217
     19 C         143.1022  141.6550  169.1094 C.3     1  UNL1        0.0725
     20 N         142.8730  140.1739  169.0466 N.3     1  UNL1       -0.2715
     21 C         142.9795  139.3450  170.2922 C.3     1  UNL1        0.0896
     22 C         142.5374  139.5218  167.7381 C.3     1  UNL1        0.0725
     23 C         142.4309  140.3507  166.4925 C.3     1  UNL1        0.0217
     24 O         139.8518  144.8235  163.3674 O.3     1  UNL1       -0.4779
     25 C         138.5656  144.0578  163.4630 C.3     1  UNL1        0.1662
     26 C         138.1219  143.1913  162.3218 C.3     1  UNL1        0.0472
     27 C         137.7229  144.1584  164.7000 C.3     1  UNL1        0.0472
     28 N         140.7916  140.9387  158.8887 N.pl3   1  UNL1       -0.2961
     29 H         141.2425  140.3850  158.2109 H       1  UNL1        0.1537
     30 C         139.8409  140.3069  159.8618 C.ar    1  UNL1        0.0667
     31 C         138.3615  140.4814  159.6858 C.ar    1  UNL1        0.0159
     32 C         137.4108  139.8497  160.6589 C.ar    1  UNL1        0.0014
     33 C         137.9394  139.0434  161.8080 C.ar    1  UNL1        0.0014
     34 C         139.4188  138.8689  161.9840 C.ar    1  UNL1        0.0196
     35 C         140.3696  139.5007  161.0108 C.ar    1  UNL1        0.1189
     36 S         141.8489  139.3262  161.1868 S.O2    1  UNL1        0.0082
     37 O         141.8481  140.3880  162.2463 O.2     1  UNL1       -0.1686
     38 O         141.8497  138.2644  160.1273 O.2     1  UNL1       -0.1686
     39 C         143.3283  139.1517  161.3628 C.3     1  UNL1        0.1340
     40 C         144.1945  140.3414  161.6536 C.3     1  UNL1        0.0257
     41 C         143.9415  137.7877  161.2480 C.3     1  UNL1        0.0257
@<TRIPOS>BOND
     1    10    11    1
     2    11    12   ar
     3    12    13   ar
     4    13     8    1
     5     8     1    1
     6     1     2   ar
     7     2     3   ar
     8     3     4   ar
     9     4     5    1
    10     4     6   ar
    11     6    28    1
    12    28    30    1
    13    30    31   ar
    14    31    32   ar
    15    32    33   ar
    16    33    34   ar
    17    34    35   ar
    18    35    36    1
    19    36    37    2
    20    36    38    2
    21    36    39    1
    22    39    40    1
    23    39    41    1
    24     6     7   ar
    25    13    14   ar
    26    14    24    1
    27    24    25    1
    28    25    26    1
    29    25    27    1
    30    14    15   ar
    31    15    16   ar
    32    16    17    1
    33    17    18    1
    34    18    19    1
    35    19    20    1
    36    20    21    1
    37    20    22    1
    38    22    23    1
    39    16    11   ar
    40    23    17    1
    41     7     1   ar
    42    35    30   ar
    43     8     9    1
    44    28    29    1
@<TRIPOS>MOLECULE
*****
 41 44 0 0 0
SMALL
GASTEIGER

@<TRIPOS>ATOM
      1 C         143.3397  139.4267  159.6422 C.ar    1  UNL1        0.2220
      2 N         143.7909  139.1620  158.2363 N.ar    1  UNL1       -0.2110
      3 C         142.9795  139.6676  157.0804 C.ar    1  UNL1        0.1160
      4 C         141.7170  140.4380  157.3304 C.ar    1  UNL1        0.1085
      5 CL        140.9056  140.9437  156.1746 Cl      1  UNL1       -0.0777
      6 C         141.2658  140.7028  158.7362 C.ar    1  UNL1        0.1472
      7 N         142.0772  140.1971  159.8921 N.ar    1  UNL1       -0.1976
      8 N         144.1510  138.9211  160.7980 N.pl3   1  UNL1       -0.2801
      9 H         145.0178  138.4830  160.6368 H       1  UNL1        0.1552
     10 C         141.0688  137.3507  164.6753 C.3     1  UNL1        0.0307
     11 C         142.1006  138.2978  164.1383 C.ar    1  UNL1       -0.0244
     12 C         142.6099  138.1359  162.7367 C.ar    1  UNL1        0.0132
     13 C         143.6417  139.0830  162.1997 C.ar    1  UNL1        0.0846
     14 C         144.1642  140.1918  163.0641 C.ar    1  UNL1        0.1513
     15 C         143.6549  140.3537  164.4657 C.ar    1  UNL1        0.0336
     16 C         142.6231  139.4066  165.0027 C.ar    1  UNL1       -0.0233
     17 C         142.1138  139.5685  166.4044 C.3     1  UNL1        0.0249
     18 C         140.7654  140.1796  166.6465 C.3     1  UNL1        0.0217
     19 C         140.2561  140.3415  168.0480 C.3     1  UNL1        0.0725
     20 N         141.0951  139.8923  169.2075 N.3     1  UNL1       -0.2715
     21 C         140.5858  140.0541  170.6090 C.3     1  UNL1        0.0896
     22 C         142.4434  139.2812  168.9654 C.3     1  UNL1        0.0725
     23 C         142.9528  139.1193  167.5638 C.3     1  UNL1        0.0217
     24 O         145.1960  141.1389  162.5270 O.3     1  UNL1       -0.4779
     25 C         144.7729  142.4438  161.9203 C.3     1  UNL1        0.1662
     26 C         144.3324  143.5736  162.8032 C.3     1  UNL1        0.0472
     27 C         144.7902  142.6189  160.4306 C.3     1  UNL1        0.0472
     28 N         140.0032  141.4732  158.9862 N.pl3   1  UNL1       -0.2961
     29 H         139.1505  141.1562  158.6100 H       1  UNL1        0.1537
     30 C         140.0400  142.7265  159.8095 C.ar    1  UNL1        0.0667
     31 C         140.4355  144.0279  159.1771 C.ar    1  UNL1        0.0159
     32 C         140.4722  145.2813  160.0003 C.ar    1  UNL1        0.0014
     33 C         140.1134  145.2332  161.4560 C.ar    1  UNL1        0.0014
     34 C         139.7179  143.9318  162.0884 C.ar    1  UNL1        0.0196
     35 C         139.6812  142.6785  161.2651 C.ar    1  UNL1        0.1189
     36 S         139.2856  141.3771  161.8975 S.O2    1  UNL1        0.0082
     37 O         140.5827  141.3486  162.6502 O.2     1  UNL1       -0.1686
     38 O         137.9885  141.4055  161.1447 O.2     1  UNL1       -0.1686
     39 C         138.8901  140.0757  162.5299 C.3     1  UNL1        0.1340
     40 C         139.0684  138.7909  161.7764 C.3     1  UNL1        0.0257
     41 C         138.3162  140.0590  163.9156 C.3     1  UNL1        0.0257
@<TRIPOS>BOND
     1    10    11    1
     2    11    12   ar
     3    12    13   ar
     4    13     8    1
     5     8     1    1
     6     1     2   ar
     7     2     3   ar
     8     3     4   ar
     9     4     5    1
    10     4     6   ar
    11     6    28    1
    12    28    30    1
    13    30    31   ar
    14    31    32   ar
    15    32    33   ar
    16    33    34   ar
    17    34    35   ar
    18    35    36    1
    19    36    37    2
    20    36    38    2
    21    36    39    1
    22    39    40    1
    23    39    41    1
    24     6     7   ar
    25    13    14   ar
    26    14    24    1
    27    24    25    1
    28    25    26    1
    29    25    27    1
    30    14    15   ar
    31    15    16   ar
    32    16    17    1
    33    17    18    1
    34    18    19    1
    35    19    20    1
    36    20    21    1
    37    20    22    1
    38    22    23    1
    39    16    11   ar
    40    23    17    1
    41     7     1   ar
    42    35    30   ar
    43     8     9    1
    44    28    29    1
@<TRIPOS>MOLECULE
*****
 41 44 0 0 0
SMALL
GASTEIGER

@<TRIPOS>ATOM
      1 C         142.0826  138.9474  164.9326 C.ar    1  UNL1        0.2220
      2 N         142.5402  138.7074  166.3408 N.ar    1  UNL1       -0.2110
      3 C         142.7856  139.8687  167.2579 C.ar    1  UNL1        0.1160
      4 C         142.5733  141.2701  166.7667 C.ar    1  UNL1        0.1085
      5 CL        142.8186  142.4315  167.6838 Cl      1  UNL1       -0.0777
      6 C         142.1156  141.5100  165.3585 C.ar    1  UNL1        0.1472
      7 N         141.8703  140.3487  164.4415 N.ar    1  UNL1       -0.1976
      8 N         141.8373  137.7860  164.0155 N.pl3   1  UNL1       -0.2801
      9 H         142.0288  136.8695  164.3198 H       1  UNL1        0.1552
     10 C         142.6484  138.7817  158.9805 C.3     1  UNL1        0.0307
     11 C         141.7057  138.5189  160.1173 C.ar    1  UNL1       -0.0244
     12 C         142.2428  138.2838  161.4980 C.ar    1  UNL1        0.0132
     13 C         141.3001  138.0210  162.6348 C.ar    1  UNL1        0.0846
     14 C         139.8204  137.9933  162.3909 C.ar    1  UNL1        0.1513
     15 C         139.2833  138.2284  161.0102 C.ar    1  UNL1        0.0336
     16 C         140.2260  138.4912  159.8734 C.ar    1  UNL1       -0.0233
     17 C         139.6889  138.7262  158.4927 C.3     1  UNL1        0.0249
     18 C         138.9946  140.0155  158.1675 C.3     1  UNL1        0.0217
     19 C         138.4575  140.2506  156.7869 C.3     1  UNL1        0.0725
     20 N         138.6146  139.1964  155.7314 N.3     1  UNL1       -0.2715
     21 C         138.0775  139.4315  154.3507 C.3     1  UNL1        0.0896
     22 C         139.3088  137.9071  156.0566 C.3     1  UNL1        0.0725
     23 C         139.8460  137.6720  157.4373 C.3     1  UNL1        0.0217
     24 O         138.8777  137.7305  163.5277 O.3     1  UNL1       -0.4779
     25 C         138.5302  138.8327  164.4839 C.3     1  UNL1        0.1662
     26 C         138.5018  138.5642  165.9594 C.3     1  UNL1        0.0472
     27 C         138.2111  140.2033  163.9647 C.3     1  UNL1        0.0472
     28 N         141.9033  142.9114  164.8674 N.pl3   1  UNL1       -0.2961
     29 H         142.6545  143.5476  164.8545 H       1  UNL1        0.1537
     30 C         140.5465  143.3434  164.3959 C.ar    1  UNL1        0.0667
     31 C         139.5274  143.8263  165.3850 C.ar    1  UNL1        0.0159
     32 C         138.1706  144.2583  164.9135 C.ar    1  UNL1        0.0014
     33 C         137.8328  144.2074  163.4529 C.ar    1  UNL1        0.0014
     34 C         138.8518  143.7246  162.4638 C.ar    1  UNL1        0.0196
     35 C         140.2087  143.2925  162.9354 C.ar    1  UNL1        0.1189
     36 S         141.2278  142.8097  161.9463 S.O2    1  UNL1        0.0082
     37 O         142.0602  144.0297  162.2082 O.2     1  UNL1       -0.1686
     38 O         140.3954  141.5896  161.6843 O.2     1  UNL1       -0.1686
     39 C         142.2469  142.3268  160.9572 C.3     1  UNL1        0.1340
     40 C         141.9397  142.3555  159.4892 C.3     1  UNL1        0.0257
     41 C         143.5731  141.8151  161.4360 C.3     1  UNL1        0.0257
@<TRIPOS>BOND
     1    10    11    1
     2    11    12   ar
     3    12    13   ar
     4    13     8    1
     5     8     1    1
     6     1     2   ar
     7     2     3   ar
     8     3     4   ar
     9     4     5    1
    10     4     6   ar
    11     6    28    1
    12    28    30    1
    13    30    31   ar
    14    31    32   ar
    15    32    33   ar
    16    33    34   ar
    17    34    35   ar
    18    35    36    1
    19    36    37    2
    20    36    38    2
    21    36    39    1
    22    39    40    1
    23    39    41    1
    24     6     7   ar
    25    13    14   ar
    26    14    24    1
    27    24    25    1
    28    25    26    1
    29    25    27    1
    30    14    15   ar
    31    15    16   ar
    32    16    17    1
    33    17    18    1
    34    18    19    1
    35    19    20    1
    36    20    21    1
    37    20    22    1
    38    22    23    1
    39    16    11   ar
    40    23    17    1
    41     7     1   ar
    42    35    30   ar
    43     8     9    1
    44    28    29    1
@<TRIPOS>MOLECULE
*****
 41 44 0 0 0
SMALL
GASTEIGER

@<TRIPOS>ATOM
      1 C         143.8831  141.4881  160.8701 C.ar    1  UNL1        0.2220
      2 N         144.7352  142.0349  159.7633 N.ar    1  UNL1       -0.2110
      3 C         144.1303  142.9323  158.7246 C.ar    1  UNL1        0.1160
      4 C         142.6734  143.2828  158.7927 C.ar    1  UNL1        0.1085
      5 CL        142.0685  144.1801  157.7540 Cl      1  UNL1       -0.0777
      6 C         141.8214  142.7359  159.8995 C.ar    1  UNL1        0.1472
      7 N         142.4262  141.8386  160.9382 N.ar    1  UNL1       -0.1976
      8 N         144.4880  140.5907  161.9089 N.pl3   1  UNL1       -0.2801
      9 H         145.3181  140.0994  161.7119 H       1  UNL1        0.1552
     10 C         143.3549  142.5047  166.6049 C.3     1  UNL1        0.0307
     11 C         143.2615  141.3989  165.5957 C.ar    1  UNL1       -0.0244
     12 C         143.9214  141.5477  164.2569 C.ar    1  UNL1        0.0132
     13 C         143.8280  140.4419  163.2477 C.ar    1  UNL1        0.0846
     14 C         143.0747  139.1874  163.5772 C.ar    1  UNL1        0.1513
     15 C         142.4148  139.0386  164.9160 C.ar    1  UNL1        0.0336
     16 C         142.5082  140.1444  165.9252 C.ar    1  UNL1       -0.0233
     17 C         141.8482  139.9956  167.2640 C.3     1  UNL1        0.0249
     18 C         142.6369  139.4946  168.4374 C.3     1  UNL1        0.0217
     19 C         141.9771  139.3457  169.7762 C.3     1  UNL1        0.0725
     20 N         140.5284  139.6980  169.9416 N.3     1  UNL1       -0.2715
     21 C         139.8685  139.5491  171.2804 C.3     1  UNL1        0.0896
     22 C         139.7396  140.1990  168.7682 C.3     1  UNL1        0.0725
     23 C         140.3996  140.3478  167.4294 C.3     1  UNL1        0.0217
     24 O         142.9813  138.0816  162.5680 O.3     1  UNL1       -0.4779
     25 C         141.8773  138.0842  161.5526 C.3     1  UNL1        0.1662
     26 C         142.2017  138.1959  160.0923 C.3     1  UNL1        0.0472
     27 C         140.4489  137.9752  161.9974 C.3     1  UNL1        0.0472
     28 N         140.3645  143.0864  159.9676 N.pl3   1  UNL1       -0.2961
     29 H         140.0704  144.0071  159.7805 H       1  UNL1        0.1537
     30 C         139.3556  142.0341  160.3209 C.ar    1  UNL1        0.0667
     31 C         138.9331  141.0255  159.2942 C.ar    1  UNL1        0.0159
     32 C         137.9242  139.9732  159.6475 C.ar    1  UNL1        0.0014
     33 C         137.3379  139.9294  161.0275 C.ar    1  UNL1        0.0014
     34 C         137.7605  140.9380  162.0542 C.ar    1  UNL1        0.0196
     35 C         138.7694  141.9904  161.7009 C.ar    1  UNL1        0.1189
     36 S         139.1920  142.9990  162.7276 S.O2    1  UNL1        0.0082
     37 O         140.2115  142.0340  163.2560 O.2     1  UNL1       -0.1686
     38 O         138.1724  143.9641  162.1991 O.2     1  UNL1       -0.1686
     39 C         139.6145  144.0076  163.7543 C.3     1  UNL1        0.1340
     40 C         138.5887  144.6533  164.6379 C.3     1  UNL1        0.0257
     41 C         141.0629  144.3706  163.8973 C.3     1  UNL1        0.0257
@<TRIPOS>BOND
     1    10    11    1
     2    11    12   ar
     3    12    13   ar
     4    13     8    1
     5     8     1    1
     6     1     2   ar
     7     2     3   ar
     8     3     4   ar
     9     4     5    1
    10     4     6   ar
    11     6    28    1
    12    28    30    1
    13    30    31   ar
    14    31    32   ar
    15    32    33   ar
    16    33    34   ar
    17    34    35   ar
    18    35    36    1
    19    36    37    2
    20    36    38    2
    21    36    39    1
    22    39    40    1
    23    39    41    1
    24     6     7   ar
    25    13    14   ar
    26    14    24    1
    27    24    25    1
    28    25    26    1
    29    25    27    1
    30    14    15   ar
    31    15    16   ar
    32    16    17    1
    33    17    18    1
    34    18    19    1
    35    19    20    1
    36    20    21    1
    37    20    22    1
    38    22    23    1
    39    16    11   ar
    40    23    17    1
    41     7     1   ar
    42    35    30   ar
    43     8     9    1
    44    28    29    1
@<TRIPOS>MOLECULE
*****
 41 44 0 0 0
SMALL
GASTEIGER

@<TRIPOS>ATOM
      1 C         138.0447  139.8148  159.9604 C.ar    1  UNL1        0.2220
      2 N         137.2757  140.1496  158.7167 N.ar    1  UNL1       -0.2110
      3 C         138.0052  140.5488  157.4684 C.ar    1  UNL1        0.1160
      4 C         139.5039  140.6132  157.4636 C.ar    1  UNL1        0.1085
      5 CL        140.2335  141.0123  156.2153 Cl      1  UNL1       -0.0777
      6 C         140.2729  140.2784  158.7072 C.ar    1  UNL1        0.1472
      7 N         139.5433  139.8792  159.9556 N.ar    1  UNL1       -0.1976
      8 N         137.3152  139.4157  161.2087 N.pl3   1  UNL1       -0.2801
      9 H         136.3902  139.0831  161.1533 H       1  UNL1        0.1552
     10 C         140.2309  137.3051  164.9563 C.3     1  UNL1        0.0307
     11 C         139.4528  138.4678  164.4153 C.ar    1  UNL1       -0.0244
     12 C         138.7730  138.3604  163.0825 C.ar    1  UNL1        0.0132
     13 C         137.9950  139.5231  162.5416 C.ar    1  UNL1        0.0846
     14 C         137.8967  140.7933  163.3333 C.ar    1  UNL1        0.1513
     15 C         138.5765  140.9007  164.6661 C.ar    1  UNL1        0.0336
     16 C         139.3545  139.7380  165.2071 C.ar    1  UNL1       -0.0233
     17 C         140.0344  139.8455  166.5399 C.3     1  UNL1        0.0249
     18 C         139.2192  139.8533  167.7991 C.3     1  UNL1        0.0217
     19 C         139.8990  139.9608  169.1319 C.3     1  UNL1        0.0725
     20 N         141.3939  140.0604  169.2056 N.3     1  UNL1       -0.2715
     21 C         142.0736  140.1679  170.5384 C.3     1  UNL1        0.0896
     22 C         142.2090  140.0525  167.9464 C.3     1  UNL1        0.0725
     23 C         141.5292  139.9451  166.6136 C.3     1  UNL1        0.0217
     24 O         137.1187  141.9561  162.7924 O.3     1  UNL1       -0.4779
     25 C         137.8361  143.1934  162.3405 C.3     1  UNL1        0.1662
     26 C         138.5079  143.2234  160.9997 C.3     1  UNL1        0.0472
     27 C         137.8817  144.4008  163.2293 C.3     1  UNL1        0.0472
     28 N         141.7716  140.3428  158.7025 N.pl3   1  UNL1       -0.2961
     29 H         142.2439  140.7621  157.9473 H       1  UNL1        0.1537
     30 C         142.5506  139.7684  159.8484 C.ar    1  UNL1        0.0667
     31 C         142.8831  138.3058  159.8709 C.ar    1  UNL1        0.0159
     32 C         143.6621  137.7314  161.0168 C.ar    1  UNL1        0.0014
     33 C         144.1086  138.6195  162.1402 C.ar    1  UNL1        0.0014
     34 C         143.7761  140.0820  162.1177 C.ar    1  UNL1        0.0196
     35 C         142.9970  140.6564  160.9717 C.ar    1  UNL1        0.1189
     36 S         142.6645  142.1189  160.9492 S.O2    1  UNL1        0.0082
     37 O         143.7709  142.3553  159.9642 O.2     1  UNL1       -0.1686
     38 O         141.5582  141.8826  161.9341 O.2     1  UNL1       -0.1686
     39 C         142.3320  143.5814  160.9266 C.3     1  UNL1        0.1340
     40 C         142.5377  144.4164  162.1557 C.3     1  UNL1        0.0257
     41 C         141.7938  144.2090  159.6751 C.3     1  UNL1        0.0257
@<TRIPOS>BOND
     1    10    11    1
     2    11    12   ar
     3    12    13   ar
     4    13     8    1
     5     8     1    1
     6     1     2   ar
     7     2     3   ar
     8     3     4   ar
     9     4     5    1
    10     4     6   ar
    11     6    28    1
    12    28    30    1
    13    30    31   ar
    14    31    32   ar
    15    32    33   ar
    16    33    34   ar
    17    34    35   ar
    18    35    36    1
    19    36    37    2
    20    36    38    2
    21    36    39    1
    22    39    40    1
    23    39    41    1
    24     6     7   ar
    25    13    14   ar
    26    14    24    1
    27    24    25    1
    28    25    26    1
    29    25    27    1
    30    14    15   ar
    31    15    16   ar
    32    16    17    1
    33    17    18    1
    34    18    19    1
    35    19    20    1
    36    20    21    1
    37    20    22    1
    38    22    23    1
    39    16    11   ar
    40    23    17    1
    41     7     1   ar
    42    35    30   ar
    43     8     9    1
    44    28    29    1
