@<TRIPOS>MOLECULE
*****
 33 38 0 0 0
SMALL
GASTEIGER

@<TRIPOS>ATOM
      1 O         143.7029  139.4599  158.1824 O.2     1  UNL1       -0.2647
      2 C         142.4815  138.5922  158.2549 C.2     1  UNL1        0.3047
      3 N         141.3012  139.0254  159.0729 N.am    1  UNL1       -0.2647
      4 C         140.9820  140.2172  159.9261 C.3     1  UNL1        0.1391
      5 C         139.6320  139.6381  160.2298 C.3     1  UNL1        0.2052
      6 C         139.9512  138.4464  159.3766 C.3     1  UNL1        0.1391
      7 C         142.4404  137.2911  157.5094 C.ar    1  UNL1        0.3043
      8 N         141.4671  136.9249  156.4284 N.ar    1  UNL1       -0.1021
      9 N         141.7905  135.5354  155.9650 N.ar    1  UNL1       -0.1068
     10 C         142.9635  135.0430  156.7595 C.ar    1  UNL1        0.2501
     11 O         143.3651  136.1281  157.7141 O.2     1  UNL1       -0.4122
     12 C         143.6197  133.7009  156.6235 C.ar    1  UNL1        0.0551
     13 C         144.5263  133.1961  157.7066 C.ar    1  UNL1        0.0047
     14 C         145.1825  131.8542  157.5705 C.ar    1  UNL1        0.0002
     15 C         144.9321  131.0170  156.3513 C.ar    1  UNL1        0.0000
     16 C         144.0254  131.5218  155.2681 C.ar    1  UNL1        0.0002
     17 C         143.3693  132.8638  155.4042 C.ar    1  UNL1        0.0047
     18 O         138.4517  140.0714  161.0479 O.3     1  UNL1       -0.4756
     19 C         138.4404  139.8394  162.5297 C.ar    1  UNL1        0.1385
     20 C         138.1191  140.9686  163.4633 C.ar    1  UNL1        0.0366
     21 C         138.1079  140.7367  164.9451 C.ar    1  UNL1        0.0002
     22 C         138.4179  139.3754  165.4935 C.ar    1  UNL1       -0.0059
     23 C         138.7392  138.2461  164.5600 C.ar    1  UNL1        0.0002
     24 C         138.7505  138.4780  163.0781 C.ar    1  UNL1        0.0366
     25 C         138.4067  139.1433  166.9755 C.3     1  UNL1        0.0993
     26 N         139.4678  139.7585  167.8390 N.3     1  UNL1       -0.2648
     27 C         139.4959  140.3811  169.2034 C.3     1  UNL1        0.1013
     28 C         140.9685  140.6283  169.0602 C.3     1  UNL1        0.1221
     29 C         142.4185  140.7751  168.7053 C.3     1  UNL1        0.0326
     30 C         143.1120  141.4422  169.8560 C.3     1  UNL1        0.0346
     31 C         142.0907  141.7076  170.9220 C.3     1  UNL1        0.1421
     32 O         140.7659  141.2046  170.4302 O.3     1  UNL1       -0.3558
     33 C         140.9404  140.0057  167.6958 C.3     1  UNL1        0.1013
@<TRIPOS>BOND
     1     1     2    2
     2     2     7    1
     3     7     8   ar
     4     8     9   ar
     5     9    10   ar
     6    10    12    1
     7    12    13   ar
     8    13    14   ar
     9    14    15   ar
    10    15    16   ar
    11    16    17   ar
    12    10    11   ar
    13     2     3   am
    14     3     4    1
    15     4     5    1
    16     5    18    1
    17    18    19    1
    18    19    20   ar
    19    20    21   ar
    20    21    22   ar
    21    22    25    1
    22    25    26    1
    23    26    27    1
    24    27    28    1
    25    28    29    1
    26    29    30    1
    27    30    31    1
    28    31    32    1
    29    28    33    1
    30    22    23   ar
    31    23    24   ar
    32     5     6    1
    33    11     7   ar
    34     6     3    1
    35    17    12   ar
    36    24    19   ar
    37    33    26    1
    38    32    28    1
@<TRIPOS>MOLECULE
*****
 33 38 0 0 0
SMALL
GASTEIGER

@<TRIPOS>ATOM
      1 O         146.0915  141.7287  163.1457 O.2     1  UNL1       -0.2647
      2 C         144.6218  141.4290  163.1649 C.2     1  UNL1        0.3047
      3 N         143.8497  141.3794  161.8799 N.am    1  UNL1       -0.2647
      4 C         144.1884  141.5689  160.4309 C.3     1  UNL1        0.1391
      5 C         142.7576  141.3094  160.0625 C.3     1  UNL1        0.2052
      6 C         142.4189  141.1199  161.5115 C.3     1  UNL1        0.1391
      7 C         143.9243  141.1788  164.4691 C.ar    1  UNL1        0.3043
      8 N         143.4109  139.8557  164.9547 N.ar    1  UNL1       -0.1021
      9 N         142.7870  140.0669  166.3023 N.ar    1  UNL1       -0.1068
     10 C         142.9148  141.5205  166.6496 C.ar    1  UNL1        0.2501
     11 O         143.6177  142.2077  165.5166 O.2     1  UNL1       -0.4122
     12 C         142.4256  142.1725  167.9088 C.ar    1  UNL1        0.0551
     13 C         143.3548  142.3457  169.0736 C.ar    1  UNL1        0.0047
     14 C         142.8656  142.9977  170.3327 C.ar    1  UNL1        0.0002
     15 C         141.4472  143.4766  170.4272 C.ar    1  UNL1        0.0000
     16 C         140.5180  143.3034  169.2625 C.ar    1  UNL1        0.0002
     17 C         141.0073  142.6514  168.0033 C.ar    1  UNL1        0.0047
     18 O         141.9854  141.2598  158.7775 O.3     1  UNL1       -0.4756
     19 C         141.8688  139.9693  158.0219 C.ar    1  UNL1        0.1385
     20 C         142.9972  139.5070  157.1484 C.ar    1  UNL1        0.0366
     21 C         142.8806  138.2165  156.3928 C.ar    1  UNL1        0.0002
     22 C         141.6355  137.3883  156.5107 C.ar    1  UNL1       -0.0059
     23 C         140.5071  137.8506  157.3842 C.ar    1  UNL1        0.0002
     24 C         140.6237  139.1411  158.1398 C.ar    1  UNL1        0.0366
     25 C         141.5189  136.0977  155.7551 C.3     1  UNL1        0.0993
     26 N         142.4414  134.9578  156.0707 N.3     1  UNL1       -0.2648
     27 C         143.3180  134.5930  157.2320 C.3     1  UNL1        0.1013
     28 C         143.7461  133.3457  156.5171 C.3     1  UNL1        0.1221
     29 C         144.0318  132.1709  155.6293 C.3     1  UNL1        0.0326
     30 C         145.0071  131.2797  156.3394 C.3     1  UNL1        0.0346
     31 C         145.3242  131.9037  157.6661 C.3     1  UNL1        0.1421
     32 O         144.5448  133.1806  157.7759 O.3     1  UNL1       -0.3558
     33 C         142.8695  133.7105  155.3558 C.3     1  UNL1        0.1013
@<TRIPOS>BOND
     1     1     2    2
     2     2     7    1
     3     7     8   ar
     4     8     9   ar
     5     9    10   ar
     6    10    12    1
     7    12    13   ar
     8    13    14   ar
     9    14    15   ar
    10    15    16   ar
    11    16    17   ar
    12    10    11   ar
    13     2     3   am
    14     3     4    1
    15     4     5    1
    16     5    18    1
    17    18    19    1
    18    19    20   ar
    19    20    21   ar
    20    21    22   ar
    21    22    25    1
    22    25    26    1
    23    26    27    1
    24    27    28    1
    25    28    29    1
    26    29    30    1
    27    30    31    1
    28    31    32    1
    29    28    33    1
    30    22    23   ar
    31    23    24   ar
    32     5     6    1
    33    11     7   ar
    34     6     3    1
    35    17    12   ar
    36    24    19   ar
    37    33    26    1
    38    32    28    1
@<TRIPOS>MOLECULE
*****
 33 38 0 0 0
SMALL
GASTEIGER

@<TRIPOS>ATOM
      1 O         142.5039  143.6893  159.3225 O.2     1  UNL1       -0.2647
      2 C         141.0998  143.3406  158.9267 C.2     1  UNL1        0.3047
      3 N         140.4074  142.1746  159.5678 N.am    1  UNL1       -0.2647
      4 C         140.7818  141.1587  160.6061 C.3     1  UNL1        0.1391
      5 C         139.4283  140.5255  160.4745 C.3     1  UNL1        0.2052
      6 C         139.0539  141.5414  159.4363 C.3     1  UNL1        0.1391
      7 C         140.3878  144.1579  157.8898 C.ar    1  UNL1        0.3043
      8 N         139.4869  143.6269  156.8145 N.ar    1  UNL1       -0.1021
      9 N         138.9941  144.7905  156.0062 N.ar    1  UNL1       -0.1068
     10 C         139.5904  146.0405  156.5820 C.ar    1  UNL1        0.2501
     11 O         140.4518  145.6496  157.7461 O.2     1  UNL1       -0.4122
     12 C         139.3650  147.4365  156.0815 C.ar    1  UNL1        0.0551
     13 C         138.6560  148.4375  156.9449 C.ar    1  UNL1        0.0047
     14 C         138.4306  149.8334  156.4444 C.ar    1  UNL1        0.0002
     15 C         138.9142  150.2285  155.0805 C.ar    1  UNL1        0.0000
     16 C         139.6231  149.2275  154.2171 C.ar    1  UNL1        0.0002
     17 C         139.8485  147.8316  154.7176 C.ar    1  UNL1        0.0047
     18 O         138.7360  139.3595  161.1157 O.3     1  UNL1       -0.4756
     19 C         138.6127  139.2890  162.6089 C.ar    1  UNL1        0.1385
     20 C         138.9245  138.0098  163.3276 C.ar    1  UNL1        0.0366
     21 C         138.8012  137.9392  164.8208 C.ar    1  UNL1        0.0002
     22 C         138.3661  139.1478  165.5954 C.ar    1  UNL1       -0.0059
     23 C         138.0542  140.4270  164.8767 C.ar    1  UNL1        0.0002
     24 C         138.1775  140.4976  163.3835 C.ar    1  UNL1        0.0366
     25 C         138.2427  139.0773  167.0887 C.3     1  UNL1        0.0993
     26 N         139.3149  139.6640  167.9584 N.3     1  UNL1       -0.2648
     27 C         139.3550  140.2685  169.3306 C.3     1  UNL1        0.1013
     28 C         140.8311  140.4937  169.1882 C.3     1  UNL1        0.1221
     29 C         142.2828  140.6216  168.8329 C.3     1  UNL1        0.0326
     30 C         142.9887  141.2625  169.9909 C.3     1  UNL1        0.0346
     31 C         141.9733  141.5306  171.0619 C.3     1  UNL1        0.1421
     32 O         140.6398  141.0555  170.5658 O.3     1  UNL1       -0.3558
     33 C         140.7910  139.8893  167.8160 C.3     1  UNL1        0.1013
@<TRIPOS>BOND
     1     1     2    2
     2     2     7    1
     3     7     8   ar
     4     8     9   ar
     5     9    10   ar
     6    10    12    1
     7    12    13   ar
     8    13    14   ar
     9    14    15   ar
    10    15    16   ar
    11    16    17   ar
    12    10    11   ar
    13     2     3   am
    14     3     4    1
    15     4     5    1
    16     5    18    1
    17    18    19    1
    18    19    20   ar
    19    20    21   ar
    20    21    22   ar
    21    22    25    1
    22    25    26    1
    23    26    27    1
    24    27    28    1
    25    28    29    1
    26    29    30    1
    27    30    31    1
    28    31    32    1
    29    28    33    1
    30    22    23   ar
    31    23    24   ar
    32     5     6    1
    33    11     7   ar
    34     6     3    1
    35    17    12   ar
    36    24    19   ar
    37    33    26    1
    38    32    28    1
@<TRIPOS>MOLECULE
*****
 33 38 0 0 0
SMALL
GASTEIGER

@<TRIPOS>ATOM
      1 O         141.0966  136.7922  162.9952 O.2     1  UNL1       -0.2647
      2 C         140.5170  138.1740  163.0633 C.2     1  UNL1        0.3047
      3 N         140.5530  139.0627  161.8555 N.am    1  UNL1       -0.2647
      4 C         141.0664  138.9257  160.4527 C.3     1  UNL1        0.1391
      5 C         140.6039  140.3196  160.1472 C.3     1  UNL1        0.2052
      6 C         140.0904  140.4566  161.5500 C.3     1  UNL1        0.1391
      7 C         139.9013  138.6672  164.3392 C.ar    1  UNL1        0.3043
      8 N         138.5664  138.2601  164.8889 N.ar    1  UNL1       -0.1021
      9 N         138.3525  138.9953  166.1787 N.ar    1  UNL1       -0.1068
     10 C         139.5552  139.8567  166.4262 C.ar    1  UNL1        0.2501
     11 O         140.5125  139.6539  165.2892 O.2     1  UNL1       -0.4122
     12 C         139.7641  140.7620  167.6038 C.ar    1  UNL1        0.0551
     13 C         140.3892  142.1118  167.4106 C.ar    1  UNL1        0.0047
     14 C         140.5981  143.0171  168.5883 C.ar    1  UNL1        0.0002
     15 C         140.1819  142.5726  169.9591 C.ar    1  UNL1        0.0000
     16 C         139.5568  141.2228  170.1523 C.ar    1  UNL1        0.0002
     17 C         139.3479  140.3175  168.9747 C.ar    1  UNL1        0.0047
     18 O         140.6399  141.2083  158.9394 O.3     1  UNL1       -0.4756
     19 C         139.4610  141.2636  158.0136 C.ar    1  UNL1        0.1385
     20 C         139.2401  140.1670  157.0143 C.ar    1  UNL1        0.0366
     21 C         138.0613  140.2221  156.0884 C.ar    1  UNL1        0.0002
     22 C         137.1033  141.3741  156.1619 C.ar    1  UNL1       -0.0059
     23 C         137.3242  142.4707  157.1612 C.ar    1  UNL1        0.0002
     24 C         138.5030  142.4155  158.0870 C.ar    1  UNL1        0.0366
     25 C         135.9243  141.4293  155.2360 C.3     1  UNL1        0.0993
     26 N         134.5752  140.9784  155.7119 N.3     1  UNL1       -0.2648
     27 C         133.1576  141.3130  155.3532 C.3     1  UNL1        0.1013
     28 C         132.6672  140.3408  156.3848 C.3     1  UNL1        0.1221
     29 C         132.4045  139.3282  157.4598 C.3     1  UNL1        0.0326
     30 C         130.9188  139.1850  157.6086 C.3     1  UNL1        0.0346
     31 C         130.2632  140.1090  156.6256 C.3     1  UNL1        0.1421
     32 O         131.3438  140.8234  155.8692 O.3     1  UNL1       -0.3558
     33 C         134.0847  140.0062  156.7435 C.3     1  UNL1        0.1013
@<TRIPOS>BOND
     1     1     2    2
     2     2     7    1
     3     7     8   ar
     4     8     9   ar
     5     9    10   ar
     6    10    12    1
     7    12    13   ar
     8    13    14   ar
     9    14    15   ar
    10    15    16   ar
    11    16    17   ar
    12    10    11   ar
    13     2     3   am
    14     3     4    1
    15     4     5    1
    16     5    18    1
    17    18    19    1
    18    19    20   ar
    19    20    21   ar
    20    21    22   ar
    21    22    25    1
    22    25    26    1
    23    26    27    1
    24    27    28    1
    25    28    29    1
    26    29    30    1
    27    30    31    1
    28    31    32    1
    29    28    33    1
    30    22    23   ar
    31    23    24   ar
    32     5     6    1
    33    11     7   ar
    34     6     3    1
    35    17    12   ar
    36    24    19   ar
    37    33    26    1
    38    32    28    1
@<TRIPOS>MOLECULE
*****
 33 38 0 0 0
SMALL
GASTEIGER

@<TRIPOS>ATOM
      1 O         141.2659  145.1037  162.7779 O.2     1  UNL1       -0.2647
      2 C         142.0661  143.8604  163.0305 C.2     1  UNL1        0.3047
      3 N         142.7620  143.1725  161.8935 N.am    1  UNL1       -0.2647
      4 C         142.8847  143.4204  160.4192 C.3     1  UNL1        0.1391
      5 C         143.7460  142.1997  160.2856 C.3     1  UNL1        0.2052
      6 C         143.6233  141.9517  161.7599 C.3     1  UNL1        0.1391
      7 C         142.1706  143.3049  164.4199 C.ar    1  UNL1        0.3043
      8 N         143.4422  142.9829  165.1473 N.ar    1  UNL1       -0.1021
      9 N         143.0793  142.4529  166.5028 N.ar    1  UNL1       -0.1068
     10 C         141.5835  142.4474  166.6131 C.ar    1  UNL1        0.2501
     11 O         141.0218  142.9740  165.3258 O.2     1  UNL1       -0.4122
     12 C         140.7887  141.9947  167.8021 C.ar    1  UNL1        0.0551
     13 C         140.1658  140.6302  167.8125 C.ar    1  UNL1        0.0047
     14 C         139.3711  140.1777  169.0014 C.ar    1  UNL1        0.0002
     15 C         139.1992  141.0896  170.1800 C.ar    1  UNL1        0.0000
     16 C         139.8221  142.4541  170.1696 C.ar    1  UNL1        0.0002
     17 C         140.6168  142.9067  168.9806 C.ar    1  UNL1        0.0047
     18 O         144.4419  141.5118  159.1487 O.3     1  UNL1       -0.4756
     19 C         143.8329  140.2910  158.5251 C.ar    1  UNL1        0.1385
     20 C         143.8288  140.1336  157.0334 C.ar    1  UNL1        0.0366
     21 C         143.2198  138.9129  156.4097 C.ar    1  UNL1        0.0002
     22 C         142.6149  137.8496  157.2778 C.ar    1  UNL1       -0.0059
     23 C         142.6190  138.0071  158.7695 C.ar    1  UNL1        0.0002
     24 C         143.2280  139.2278  159.3932 C.ar    1  UNL1        0.0366
     25 C         142.0058  136.6289  156.6541 C.3     1  UNL1        0.0993
     26 N         142.7410  135.3219  156.6906 N.3     1  UNL1       -0.2648
     27 C         143.5650  134.5966  157.7128 C.3     1  UNL1        0.1013
     28 C         143.7806  133.4735  156.7422 C.3     1  UNL1        0.1221
     29 C         143.8647  132.4777  155.6236 C.3     1  UNL1        0.0326
     30 C         144.6968  131.3216  156.0939 C.3     1  UNL1        0.0346
     31 C         145.1271  131.6030  157.5030 C.3     1  UNL1        0.1421
     32 O         144.5608  132.9330  157.9037 O.3     1  UNL1       -0.3558
     33 C         142.9566  134.1987  155.7200 C.3     1  UNL1        0.1013
@<TRIPOS>BOND
     1     1     2    2
     2     2     7    1
     3     7     8   ar
     4     8     9   ar
     5     9    10   ar
     6    10    12    1
     7    12    13   ar
     8    13    14   ar
     9    14    15   ar
    10    15    16   ar
    11    16    17   ar
    12    10    11   ar
    13     2     3   am
    14     3     4    1
    15     4     5    1
    16     5    18    1
    17    18    19    1
    18    19    20   ar
    19    20    21   ar
    20    21    22   ar
    21    22    25    1
    22    25    26    1
    23    26    27    1
    24    27    28    1
    25    28    29    1
    26    29    30    1
    27    30    31    1
    28    31    32    1
    29    28    33    1
    30    22    23   ar
    31    23    24   ar
    32     5     6    1
    33    11     7   ar
    34     6     3    1
    35    17    12   ar
    36    24    19   ar
    37    33    26    1
    38    32    28    1
@<TRIPOS>MOLECULE
*****
 33 38 0 0 0
SMALL
GASTEIGER

@<TRIPOS>ATOM
      1 O         138.4855  137.7440  163.9772 O.2     1  UNL1       -0.2647
      2 C         139.8303  138.2347  163.5295 C.2     1  UNL1        0.3047
      3 N         140.0928  138.4789  162.0730 N.am    1  UNL1       -0.2647
      4 C         139.2875  138.3505  160.8140 C.3     1  UNL1        0.1391
      5 C         140.4641  138.8242  160.0131 C.3     1  UNL1        0.2052
      6 C         141.2694  138.9526  161.2721 C.3     1  UNL1        0.1391
      7 C         140.9128  138.4814  164.5383 C.ar    1  UNL1        0.3043
      8 N         142.2516  137.8061  164.5777 N.ar    1  UNL1       -0.1021
      9 N         143.0127  138.3539  165.7484 N.ar    1  UNL1       -0.1068
     10 C         142.1443  139.3677  166.4325 C.ar    1  UNL1        0.2501
     11 O         140.8464  139.4465  165.6845 O.2     1  UNL1       -0.4122
     12 C         142.5095  140.1631  167.6507 C.ar    1  UNL1        0.0551
     13 C         142.8698  141.6133  167.5193 C.ar    1  UNL1        0.0047
     14 C         143.2350  142.4087  168.7375 C.ar    1  UNL1        0.0002
     15 C         143.2400  141.7539  170.0870 C.ar    1  UNL1        0.0000
     16 C         142.8798  140.3037  170.2184 C.ar    1  UNL1        0.0002
     17 C         142.5146  139.5084  169.0002 C.ar    1  UNL1        0.0047
     18 O         140.7266  139.0684  158.5565 O.3     1  UNL1       -0.4756
     19 C         141.1906  137.9436  157.6793 C.ar    1  UNL1        0.1385
     20 C         140.2817  137.3949  156.6197 C.ar    1  UNL1        0.0366
     21 C         140.7456  136.2702  155.7424 C.ar    1  UNL1        0.0002
     22 C         142.1186  135.6942  155.9247 C.ar    1  UNL1       -0.0059
     23 C         143.0275  136.2429  156.9843 C.ar    1  UNL1        0.0002
     24 C         142.5636  137.3676  157.8616 C.ar    1  UNL1        0.0366
     25 C         142.5826  134.5694  155.0473 C.3     1  UNL1        0.0993
     26 N         142.8616  133.2207  155.6417 N.3     1  UNL1       -0.2648
     27 C         142.2481  131.8578  155.5139 C.3     1  UNL1        0.1013
     28 C         143.2561  131.3133  156.4822 C.3     1  UNL1        0.1221
     29 C         144.3477  130.9888  157.4585 C.3     1  UNL1        0.0326
     30 C         144.2587  129.5273  157.7842 C.3     1  UNL1        0.0346
     31 C         143.1121  128.9486  157.0092 C.3     1  UNL1        0.1421
     32 O         142.4925  130.0525  156.2045 O.3     1  UNL1       -0.3558
     33 C         143.8696  132.6762  156.6099 C.3     1  UNL1        0.1013
@<TRIPOS>BOND
     1     1     2    2
     2     2     7    1
     3     7     8   ar
     4     8     9   ar
     5     9    10   ar
     6    10    12    1
     7    12    13   ar
     8    13    14   ar
     9    14    15   ar
    10    15    16   ar
    11    16    17   ar
    12    10    11   ar
    13     2     3   am
    14     3     4    1
    15     4     5    1
    16     5    18    1
    17    18    19    1
    18    19    20   ar
    19    20    21   ar
    20    21    22   ar
    21    22    25    1
    22    25    26    1
    23    26    27    1
    24    27    28    1
    25    28    29    1
    26    29    30    1
    27    30    31    1
    28    31    32    1
    29    28    33    1
    30    22    23   ar
    31    23    24   ar
    32     5     6    1
    33    11     7   ar
    34     6     3    1
    35    17    12   ar
    36    24    19   ar
    37    33    26    1
    38    32    28    1
@<TRIPOS>MOLECULE
*****
 33 38 0 0 0
SMALL
GASTEIGER

@<TRIPOS>ATOM
      1 O         144.9509  137.6572  155.5418 O.2     1  UNL1       -0.2647
      2 C         143.7028  136.9210  155.9297 C.2     1  UNL1        0.3047
      3 N         142.6150  137.6319  156.6789 N.am    1  UNL1       -0.2647
      4 C         142.4208  139.0259  157.1978 C.3     1  UNL1        0.1391
      5 C         141.0766  138.6373  157.7384 C.3     1  UNL1        0.2052
      6 C         141.2708  137.2434  157.2195 C.3     1  UNL1        0.1391
      7 C         143.5425  135.4740  155.5685 C.ar    1  UNL1        0.3043
      8 N         142.7923  134.9387  154.3850 N.ar    1  UNL1       -0.1021
      9 N         142.8904  133.4422  154.4123 N.ar    1  UNL1       -0.1068
     10 C         143.7011  133.0526  155.6126 C.ar    1  UNL1        0.2501
     11 O         144.1042  134.3084  156.3272 O.2     1  UNL1       -0.4122
     12 C         144.0480  131.6529  156.0259 C.ar    1  UNL1        0.0551
     13 C         144.0594  131.2810  157.4790 C.ar    1  UNL1        0.0047
     14 C         144.4063  129.8814  157.8922 C.ar    1  UNL1        0.0002
     15 C         144.7417  128.8537  156.8524 C.ar    1  UNL1        0.0000
     16 C         144.7303  129.2256  155.3993 C.ar    1  UNL1        0.0002
     17 C         144.3834  130.6252  154.9860 C.ar    1  UNL1        0.0047
     18 O         139.9887  139.3482  158.4876 O.3     1  UNL1       -0.4756
     19 C         139.6862  138.9713  159.9076 C.ar    1  UNL1        0.1385
     20 C         140.7264  138.2795  160.7378 C.ar    1  UNL1        0.0366
     21 C         140.4240  137.9025  162.1577 C.ar    1  UNL1        0.0002
     22 C         139.0812  138.2174  162.7475 C.ar    1  UNL1       -0.0059
     23 C         138.0410  138.9092  161.9173 C.ar    1  UNL1        0.0002
     24 C         138.3434  139.2862  160.4973 C.ar    1  UNL1        0.0366
     25 C         138.7787  137.8404  164.1676 C.3     1  UNL1        0.0993
     26 N         139.1909  138.7479  165.2885 N.3     1  UNL1       -0.2648
     27 C         140.1814  139.8642  165.4399 C.3     1  UNL1        0.1013
     28 C         139.7739  140.0313  166.8738 C.3     1  UNL1        0.1221
     29 C         139.2164  140.0218  168.2663 C.3     1  UNL1        0.0326
     30 C         139.9140  141.0922  169.0521 C.3     1  UNL1        0.0346
     31 C         140.9025  141.7634  168.1453 C.3     1  UNL1        0.1421
     32 O         140.8159  141.1077  166.7990 O.3     1  UNL1       -0.3558
     33 C         138.7834  138.9151  166.7224 C.3     1  UNL1        0.1013
@<TRIPOS>BOND
     1     1     2    2
     2     2     7    1
     3     7     8   ar
     4     8     9   ar
     5     9    10   ar
     6    10    12    1
     7    12    13   ar
     8    13    14   ar
     9    14    15   ar
    10    15    16   ar
    11    16    17   ar
    12    10    11   ar
    13     2     3   am
    14     3     4    1
    15     4     5    1
    16     5    18    1
    17    18    19    1
    18    19    20   ar
    19    20    21   ar
    20    21    22   ar
    21    22    25    1
    22    25    26    1
    23    26    27    1
    24    27    28    1
    25    28    29    1
    26    29    30    1
    27    30    31    1
    28    31    32    1
    29    28    33    1
    30    22    23   ar
    31    23    24   ar
    32     5     6    1
    33    11     7   ar
    34     6     3    1
    35    17    12   ar
    36    24    19   ar
    37    33    26    1
    38    32    28    1
@<TRIPOS>MOLECULE
*****
 33 38 0 0 0
SMALL
GASTEIGER

@<TRIPOS>ATOM
      1 O         140.4671  138.9658  157.3850 O.2     1  UNL1       -0.2647
      2 C         141.9624  138.9675  157.5035 C.2     1  UNL1        0.3047
      3 N         142.6562  140.0844  158.2254 N.am    1  UNL1       -0.2647
      4 C         142.2091  141.3288  158.9338 C.3     1  UNL1        0.1391
      5 C         143.6374  141.6641  159.2463 C.3     1  UNL1        0.2052
      6 C         144.0845  140.4197  158.5379 C.3     1  UNL1        0.1391
      7 C         142.7640  137.8524  156.9002 C.ar    1  UNL1        0.3043
      8 N         143.9420  138.0085  155.9849 N.ar    1  UNL1       -0.1021
      9 N         144.4344  136.6380  155.6252 N.ar    1  UNL1       -0.1068
     10 C         143.5607  135.6350  156.3182 C.ar    1  UNL1        0.2501
     11 O         142.5283  136.3855  157.1062 O.2     1  UNL1       -0.4122
     12 C         143.6956  134.1432  156.2375 C.ar    1  UNL1        0.0551
     13 C         143.1654  133.4057  155.0438 C.ar    1  UNL1        0.0047
     14 C         143.3004  131.9139  154.9631 C.ar    1  UNL1        0.0002
     15 C         143.9655  131.1597  156.0761 C.ar    1  UNL1        0.0000
     16 C         144.4956  131.8972  157.2699 C.ar    1  UNL1        0.0002
     17 C         144.3607  133.3889  157.3505 C.ar    1  UNL1        0.0047
     18 O         144.3312  142.7810  159.9682 O.3     1  UNL1       -0.4756
     19 C         144.2653  142.8620  161.4646 C.ar    1  UNL1        0.1385
     20 C         145.0926  141.9334  162.3031 C.ar    1  UNL1        0.0366
     21 C         145.0267  142.0144  163.7994 C.ar    1  UNL1        0.0002
     22 C         144.1335  143.0241  164.4572 C.ar    1  UNL1       -0.0059
     23 C         143.3062  143.9527  163.6187 C.ar    1  UNL1        0.0002
     24 C         143.3721  143.8717  162.1223 C.ar    1  UNL1        0.0366
     25 C         144.0676  143.1051  165.9537 C.3     1  UNL1        0.0993
     26 N         143.0204  142.3338  166.7011 N.3     1  UNL1       -0.2648
     27 C         141.6389  141.8416  166.3864 C.3     1  UNL1        0.1013
     28 C         141.5396  141.2431  167.7582 C.3     1  UNL1        0.1221
     29 C         141.6577  140.7289  169.1623 C.3     1  UNL1        0.0326
     30 C         140.3816  140.0186  169.5046 C.3     1  UNL1        0.0346
     31 C         139.4749  140.0938  168.3120 C.3     1  UNL1        0.1421
     32 O         140.1906  140.8506  167.2326 O.3     1  UNL1       -0.3558
     33 C         142.9211  141.7353  168.0729 C.3     1  UNL1        0.1013
@<TRIPOS>BOND
     1     1     2    2
     2     2     7    1
     3     7     8   ar
     4     8     9   ar
     5     9    10   ar
     6    10    12    1
     7    12    13   ar
     8    13    14   ar
     9    14    15   ar
    10    15    16   ar
    11    16    17   ar
    12    10    11   ar
    13     2     3   am
    14     3     4    1
    15     4     5    1
    16     5    18    1
    17    18    19    1
    18    19    20   ar
    19    20    21   ar
    20    21    22   ar
    21    22    25    1
    22    25    26    1
    23    26    27    1
    24    27    28    1
    25    28    29    1
    26    29    30    1
    27    30    31    1
    28    31    32    1
    29    28    33    1
    30    22    23   ar
    31    23    24   ar
    32     5     6    1
    33    11     7   ar
    34     6     3    1
    35    17    12   ar
    36    24    19   ar
    37    33    26    1
    38    32    28    1
@<TRIPOS>MOLECULE
*****
 33 38 0 0 0
SMALL
GASTEIGER

@<TRIPOS>ATOM
      1 O         138.9868  137.1596  156.1317 O.2     1  UNL1       -0.2647
      2 C         140.4697  136.9362  156.0999 C.2     1  UNL1        0.3047
      3 N         141.3831  137.8566  156.8538 N.am    1  UNL1       -0.2647
      4 C         141.1911  139.0656  157.7208 C.3     1  UNL1        0.1391
      5 C         142.6750  139.1583  157.9202 C.3     1  UNL1        0.2052
      6 C         142.8670  137.9493  157.0532 C.3     1  UNL1        0.1391
      7 C         141.0393  135.7924  155.3141 C.ar    1  UNL1        0.3043
      8 N         140.8215  135.5314  153.8531 N.ar    1  UNL1       -0.1021
      9 N         141.5742  134.2866  153.4874 N.ar    1  UNL1       -0.1068
     10 C         142.2572  133.7782  154.7223 C.ar    1  UNL1        0.2501
     11 O         141.9266  134.7089  155.8512 O.2     1  UNL1       -0.4122
     12 C         143.1194  132.5541  154.8124 C.ar    1  UNL1        0.0551
     13 C         143.0473  131.5054  153.7424 C.ar    1  UNL1        0.0047
     14 C         143.9096  130.2813  153.8326 C.ar    1  UNL1        0.0002
     15 C         144.8439  130.1059  154.9929 C.ar    1  UNL1        0.0000
     16 C         144.9160  131.1546  156.0629 C.ar    1  UNL1        0.0002
     17 C         144.0538  132.3787  155.9727 C.ar    1  UNL1        0.0047
     18 O         143.5884  140.0787  158.6741 O.3     1  UNL1       -0.4756
     19 C         143.7918  139.8914  160.1484 C.ar    1  UNL1        0.1385
     20 C         143.6016  138.5376  160.7657 C.ar    1  UNL1        0.0366
     21 C         143.8049  138.3502  162.2400 C.ar    1  UNL1        0.0002
     22 C         144.1985  139.5167  163.0969 C.ar    1  UNL1       -0.0059
     23 C         144.3888  140.8704  162.4796 C.ar    1  UNL1        0.0002
     24 C         144.1854  141.0578  161.0054 C.ar    1  UNL1        0.0366
     25 C         144.4019  139.3293  164.5713 C.3     1  UNL1        0.0993
     26 N         143.4183  139.9096  165.5438 N.3     1  UNL1       -0.2648
     27 C         142.4240  139.3419  166.5128 C.3     1  UNL1        0.1013
     28 C         142.0272  140.7302  166.9191 C.3     1  UNL1        0.1221
     29 C         141.7909  142.1903  167.1688 C.3     1  UNL1        0.0326
     30 C         140.7248  142.3147  168.2167 C.3     1  UNL1        0.0346
     31 C         140.3023  140.9315  168.6146 C.3     1  UNL1        0.1421
     32 O         141.1072  139.9522  167.8126 O.3     1  UNL1       -0.3558
     33 C         143.0215  141.2979  165.9501 C.3     1  UNL1        0.1013
@<TRIPOS>BOND
     1     1     2    2
     2     2     7    1
     3     7     8   ar
     4     8     9   ar
     5     9    10   ar
     6    10    12    1
     7    12    13   ar
     8    13    14   ar
     9    14    15   ar
    10    15    16   ar
    11    16    17   ar
    12    10    11   ar
    13     2     3   am
    14     3     4    1
    15     4     5    1
    16     5    18    1
    17    18    19    1
    18    19    20   ar
    19    20    21   ar
    20    21    22   ar
    21    22    25    1
    22    25    26    1
    23    26    27    1
    24    27    28    1
    25    28    29    1
    26    29    30    1
    27    30    31    1
    28    31    32    1
    29    28    33    1
    30    22    23   ar
    31    23    24   ar
    32     5     6    1
    33    11     7   ar
    34     6     3    1
    35    17    12   ar
    36    24    19   ar
    37    33    26    1
    38    32    28    1
