@<TRIPOS>MOLECULE
*****
 27 30 0 0 0
SMALL
GASTEIGER

@<TRIPOS>ATOM
      1 C         142.9209  138.9407  165.2151 C.3     1  UNL1        0.0634
      2 C         141.9755  138.0916  164.4180 C.3     1  UNL1        0.0292
      3 C         142.1469  137.9701  162.9328 C.3     1  UNL1        0.0954
      4 N         143.2636  138.6977  162.2447 N.am    1  UNL1       -0.2642
      5 C         143.4349  138.5762  160.7594 C.2     1  UNL1        0.3039
      6 O         144.5516  139.3038  160.0712 O.2     1  UNL1       -0.2526
      7 N         142.4895  137.7271  159.9624 N.am    1  UNL1       -0.2901
      8 C         144.2089  139.5468  163.0417 C.3     1  UNL1        0.0954
      9 C         144.0376  139.6683  164.5269 C.3     1  UNL1        0.0292
     10 H         141.7566  137.2496  160.4141 H       1  UNL1        0.1509
     11 C         140.6917  140.7675  166.7459 C.3     1  UNL1        0.0390
     12 C         141.7249  139.9019  167.4039 C.ar    1  UNL1        0.0669
     13 C         141.9150  139.7240  168.8812 C.ar    1  UNL1        0.2563
     14 O         141.1051  140.3805  169.9597 O.3     1  UNL1       -0.4902
     15 N         143.0571  138.7743  169.0906 N.ar    1  UNL1       -0.0397
     16 O         143.5729  138.3654  167.7427 O.2     1  UNL1       -0.3552
     17 C         142.7496  139.0622  166.7003 C.ar    1  UNL1        0.1532
     18 H         140.4067  140.9625  169.7326 H       1  UNL1        0.2938
     19 C         142.6608  137.6056  158.4771 C.3     1  UNL1        0.0774
     20 C         142.8940  138.2438  157.1399 C.3     1  UNL1        0.0259
     21 C         142.7244  136.7570  157.2419 C.3     1  UNL1        0.0420
     22 C         142.6631  135.4086  156.5877 C.ar    1  UNL1       -0.0208
     23 C         141.6044  135.1183  155.5655 C.ar    1  UNL1       -0.0042
     24 C         141.5432  133.7699  154.9113 C.ar    1  UNL1       -0.0003
     25 C         142.5407  132.7117  155.2793 C.ar    1  UNL1       -0.0000
     26 C         143.5994  133.0020  156.3015 C.ar    1  UNL1       -0.0003
     27 C         143.6606  134.3505  156.9557 C.ar    1  UNL1       -0.0042
@<TRIPOS>BOND
     1    11    12    1
     2    12    13   ar
     3    13    14    1
     4    13    15   ar
     5    15    16   ar
     6    16    17   ar
     7    17     1    1
     8     1     2    1
     9     2     3    1
    10     3     4    1
    11     4     5   am
    12     5     6    2
    13     5     7   am
    14     7    19    1
    15    19    20    1
    16    20    21    1
    17    21    22    1
    18    22    23   ar
    19    23    24   ar
    20    24    25   ar
    21    25    26   ar
    22    26    27   ar
    23     4     8    1
    24     8     9    1
    25    17    12   ar
    26     9     1    1
    27    21    19    1
    28    27    22   ar
    29    14    18    1
    30     7    10    1
@<TRIPOS>MOLECULE
*****
 27 30 0 0 0
SMALL
GASTEIGER

@<TRIPOS>ATOM
      1 C         139.3146  139.6922  166.9181 C.3     1  UNL1        0.0634
      2 C         139.7352  140.7846  165.9802 C.3     1  UNL1        0.0292
      3 C         139.5557  140.6135  164.5009 C.3     1  UNL1        0.0954
      4 N         138.9555  139.3499  163.9594 N.am    1  UNL1       -0.2642
      5 C         138.7760  139.1788  162.4800 C.2     1  UNL1        0.3039
      6 O         138.1759  137.9152  161.9386 O.2     1  UNL1       -0.2526
      7 N         139.1967  140.2712  161.5422 N.am    1  UNL1       -0.2901
      8 C         138.5349  138.2575  164.8973 C.3     1  UNL1        0.0954
      9 C         138.7144  138.4286  166.3766 C.3     1  UNL1        0.0292
     10 H         139.5906  141.1005  161.8976 H       1  UNL1        0.1509
     11 C         142.1291  140.3092  168.4503 C.3     1  UNL1        0.0390
     12 C         140.7878  140.1469  169.1017 C.ar    1  UNL1        0.0669
     13 C         140.5046  140.2398  170.5718 C.ar    1  UNL1        0.2563
     14 O         141.5131  140.5112  171.6485 O.3     1  UNL1       -0.4902
     15 N         139.0359  140.0135  170.7762 N.ar    1  UNL1       -0.0397
     16 O         138.4114  139.7809  169.4324 O.2     1  UNL1       -0.3552
     17 C         139.4941  139.8633  168.3975 C.ar    1  UNL1        0.1532
     18 H         142.4138  140.6406  171.4250 H       1  UNL1        0.2938
     19 C         139.0172  140.1000  160.0628 C.3     1  UNL1        0.0774
     20 C         138.3044  140.4536  158.7912 C.3     1  UNL1        0.0259
     21 C         139.4191  139.4501  158.7720 C.3     1  UNL1        0.0420
     22 C         140.2946  138.4954  158.0157 C.ar    1  UNL1       -0.0208
     23 C         139.7414  137.7358  156.8466 C.ar    1  UNL1       -0.0042
     24 C         140.6169  136.7811  156.0903 C.ar    1  UNL1       -0.0003
     25 C         142.0458  136.5860  156.5032 C.ar    1  UNL1       -0.0000
     26 C         142.5990  137.3456  157.6724 C.ar    1  UNL1       -0.0003
     27 C         141.7234  138.3003  158.4286 C.ar    1  UNL1       -0.0042
@<TRIPOS>BOND
     1    11    12    1
     2    12    13   ar
     3    13    14    1
     4    13    15   ar
     5    15    16   ar
     6    16    17   ar
     7    17     1    1
     8     1     2    1
     9     2     3    1
    10     3     4    1
    11     4     5   am
    12     5     6    2
    13     5     7   am
    14     7    19    1
    15    19    20    1
    16    20    21    1
    17    21    22    1
    18    22    23   ar
    19    23    24   ar
    20    24    25   ar
    21    25    26   ar
    22    26    27   ar
    23     4     8    1
    24     8     9    1
    25    17    12   ar
    26     9     1    1
    27    21    19    1
    28    27    22   ar
    29    14    18    1
    30     7    10    1
@<TRIPOS>MOLECULE
*****
 27 30 0 0 0
SMALL
GASTEIGER

@<TRIPOS>ATOM
      1 C         139.5284  140.2054  167.2083 C.3     1  UNL1        0.0634
      2 C         139.9908  141.3608  166.3710 C.3     1  UNL1        0.0292
      3 C         139.6893  141.3904  164.9019 C.3     1  UNL1        0.0954
      4 N         138.9254  140.2646  164.2702 N.am    1  UNL1       -0.2642
      5 C         138.6238  140.2942  162.8011 C.2     1  UNL1        0.3039
      6 O         137.8599  139.1684  162.1694 O.2     1  UNL1       -0.2526
      7 N         139.0863  141.4496  161.9637 N.am    1  UNL1       -0.2901
      8 C         138.4630  139.1092  165.1076 C.3     1  UNL1        0.0954
      9 C         138.7645  139.0796  166.5767 C.3     1  UNL1        0.0292
     10 H         139.5876  142.1885  162.3783 H       1  UNL1        0.1509
     11 C         142.4132  140.8566  168.5881 C.3     1  UNL1        0.0390
     12 C         141.1559  140.4750  169.3116 C.ar    1  UNL1        0.0669
     13 C         141.0039  140.3259  170.7964 C.ar    1  UNL1        0.2563
     14 O         142.0824  140.5320  171.8183 O.3     1  UNL1       -0.4902
     15 N         139.5838  139.9343  171.0799 N.ar    1  UNL1       -0.0397
     16 O         138.8584  139.8416  169.7704 O.2     1  UNL1       -0.3552
     17 C         139.8299  140.1757  168.6775 C.ar    1  UNL1        0.1532
     18 H         142.9449  140.7772  171.5462 H       1  UNL1        0.2938
     19 C         138.7847  141.4792  160.4946 C.3     1  UNL1        0.0774
     20 C         138.1938  140.8335  159.2765 C.3     1  UNL1        0.0259
     21 C         138.8534  142.1763  159.1682 C.3     1  UNL1        0.0420
     22 C         139.2738  143.3540  158.3399 C.ar    1  UNL1       -0.0208
     23 C         138.8971  143.4238  156.8896 C.ar    1  UNL1       -0.0042
     24 C         139.3175  144.6015  156.0613 C.ar    1  UNL1       -0.0003
     25 C         140.1147  145.7096  156.6833 C.ar    1  UNL1       -0.0000
     26 C         140.4915  145.6398  158.1335 C.ar    1  UNL1       -0.0003
     27 C         140.0710  144.4620  158.9618 C.ar    1  UNL1       -0.0042
@<TRIPOS>BOND
     1    11    12    1
     2    12    13   ar
     3    13    14    1
     4    13    15   ar
     5    15    16   ar
     6    16    17   ar
     7    17     1    1
     8     1     2    1
     9     2     3    1
    10     3     4    1
    11     4     5   am
    12     5     6    2
    13     5     7   am
    14     7    19    1
    15    19    20    1
    16    20    21    1
    17    21    22    1
    18    22    23   ar
    19    23    24   ar
    20    24    25   ar
    21    25    26   ar
    22    26    27   ar
    23     4     8    1
    24     8     9    1
    25    17    12   ar
    26     9     1    1
    27    21    19    1
    28    27    22   ar
    29    14    18    1
    30     7    10    1
@<TRIPOS>MOLECULE
*****
 27 30 0 0 0
SMALL
GASTEIGER

@<TRIPOS>ATOM
      1 C         142.3207  141.9375  167.0751 C.3     1  UNL1        0.0634
      2 C         140.9476  142.2153  166.5390 C.3     1  UNL1        0.0292
      3 C         140.7830  142.9732  165.2550 C.3     1  UNL1        0.0954
      4 N         141.9914  143.4532  164.5072 N.am    1  UNL1       -0.2642
      5 C         141.8268  144.2110  163.2232 C.2     1  UNL1        0.3039
      6 O         143.0352  144.6910  162.4753 O.2     1  UNL1       -0.2526
      7 N         140.4537  144.4889  162.6871 N.am    1  UNL1       -0.2901
      8 C         143.3645  143.1753  165.0433 C.3     1  UNL1        0.0954
      9 C         143.5291  142.4174  166.3272 C.3     1  UNL1        0.0292
     10 H         139.6606  144.1739  163.1779 H       1  UNL1        0.1509
     11 C         141.6804  143.0713  170.0674 C.3     1  UNL1        0.0390
     12 C         142.1910  141.7007  169.7345 C.ar    1  UNL1        0.0669
     13 C         142.4970  140.6108  170.7185 C.ar    1  UNL1        0.2563
     14 O         142.3461  140.6999  172.2082 O.3     1  UNL1       -0.4902
     15 N         142.9805  139.4159  169.9512 N.ar    1  UNL1       -0.0397
     16 O         142.9732  139.7675  168.4930 O.2     1  UNL1       -0.3552
     17 C         142.4853  141.1796  168.3591 C.ar    1  UNL1        0.1532
     18 H         142.0350  141.4917  172.6010 H       1  UNL1        0.2938
     19 C         140.2890  145.2468  161.4031 C.3     1  UNL1        0.0774
     20 C         139.7015  146.3963  160.6394 C.3     1  UNL1        0.0259
     21 C         140.5914  145.4099  159.9430 C.3     1  UNL1        0.0420
     22 C         141.2797  144.9345  158.6979 C.ar    1  UNL1       -0.0208
     23 C         141.4376  145.8602  157.5282 C.ar    1  UNL1       -0.0042
     24 C         142.1259  145.3848  156.2831 C.ar    1  UNL1       -0.0003
     25 C         142.6563  143.9837  156.2078 C.ar    1  UNL1       -0.0000
     26 C         142.4984  143.0580  157.3775 C.ar    1  UNL1       -0.0003
     27 C         141.8101  143.5335  158.6226 C.ar    1  UNL1       -0.0042
@<TRIPOS>BOND
     1    11    12    1
     2    12    13   ar
     3    13    14    1
     4    13    15   ar
     5    15    16   ar
     6    16    17   ar
     7    17     1    1
     8     1     2    1
     9     2     3    1
    10     3     4    1
    11     4     5   am
    12     5     6    2
    13     5     7   am
    14     7    19    1
    15    19    20    1
    16    20    21    1
    17    21    22    1
    18    22    23   ar
    19    23    24   ar
    20    24    25   ar
    21    25    26   ar
    22    26    27   ar
    23     4     8    1
    24     8     9    1
    25    17    12   ar
    26     9     1    1
    27    21    19    1
    28    27    22   ar
    29    14    18    1
    30     7    10    1
@<TRIPOS>MOLECULE
*****
 27 30 0 0 0
SMALL
GASTEIGER

@<TRIPOS>ATOM
      1 C         140.0024  140.5907  167.1393 C.3     1  UNL1        0.0634
      2 C         138.7985  140.0517  166.4253 C.3     1  UNL1        0.0292
      3 C         138.7722  140.0094  164.9261 C.3     1  UNL1        0.0954
      4 N         139.9498  140.5062  164.1411 N.am    1  UNL1       -0.2642
      5 C         139.9235  140.4639  162.6418 C.2     1  UNL1        0.3039
      6 O         141.1012  140.9606  161.8568 O.2     1  UNL1       -0.2526
      7 N         138.7196  139.9248  161.9278 N.am    1  UNL1       -0.2901
      8 C         141.1538  141.0452  164.8551 C.3     1  UNL1        0.0954
      9 C         141.1800  141.0875  166.3543 C.3     1  UNL1        0.0292
     10 H         137.9467  139.5988  162.4430 H       1  UNL1        0.1509
     11 C         140.4986  143.2428  168.9752 C.3     1  UNL1        0.0390
     12 C         140.2568  141.8520  169.4824 C.ar    1  UNL1        0.0669
     13 C         140.2006  141.4361  170.9224 C.ar    1  UNL1        0.2563
     14 O         140.3763  142.3379  172.1081 O.3     1  UNL1       -0.4902
     15 N         139.9378  139.9599  170.9687 N.ar    1  UNL1       -0.0397
     16 O         139.8316  139.4636  169.5572 O.2     1  UNL1       -0.3552
     17 C         140.0287  140.6330  168.6386 C.ar    1  UNL1        0.1532
     18 H         140.5379  143.2521  171.9815 H       1  UNL1        0.2938
     19 C         138.6933  139.8825  160.4285 C.3     1  UNL1        0.0774
     20 C         138.0899  140.3207  159.1270 C.3     1  UNL1        0.0259
     21 C         139.2511  139.3712  159.1334 C.3     1  UNL1        0.0420
     22 C         140.2435  138.5277  158.3894 C.ar    1  UNL1       -0.0208
     23 C         141.6552  138.4182  158.8845 C.ar    1  UNL1       -0.0042
     24 C         142.6476  137.5747  158.1405 C.ar    1  UNL1       -0.0003
     25 C         142.2284  136.8408  156.9012 C.ar    1  UNL1       -0.0000
     26 C         140.8167  136.9504  156.4061 C.ar    1  UNL1       -0.0003
     27 C         139.8243  137.7939  157.1502 C.ar    1  UNL1       -0.0042
@<TRIPOS>BOND
     1    11    12    1
     2    12    13   ar
     3    13    14    1
     4    13    15   ar
     5    15    16   ar
     6    16    17   ar
     7    17     1    1
     8     1     2    1
     9     2     3    1
    10     3     4    1
    11     4     5   am
    12     5     6    2
    13     5     7   am
    14     7    19    1
    15    19    20    1
    16    20    21    1
    17    21    22    1
    18    22    23   ar
    19    23    24   ar
    20    24    25   ar
    21    25    26   ar
    22    26    27   ar
    23     4     8    1
    24     8     9    1
    25    17    12   ar
    26     9     1    1
    27    21    19    1
    28    27    22   ar
    29    14    18    1
    30     7    10    1
@<TRIPOS>MOLECULE
*****
 27 30 0 0 0
SMALL
GASTEIGER

@<TRIPOS>ATOM
      1 C         140.2876  143.1279  165.5967 C.3     1  UNL1        0.0634
      2 C         141.3067  142.6596  164.6007 C.3     1  UNL1        0.0292
      3 C         141.3320  143.2473  163.2209 C.3     1  UNL1        0.0954
      4 N         140.3383  144.3033  162.8371 N.am    1  UNL1       -0.2642
      5 C         140.3637  144.8910  161.4571 C.2     1  UNL1        0.3039
      6 O         139.3700  145.9470  161.0733 O.2     1  UNL1       -0.2526
      7 N         141.3828  144.4226  160.4611 N.am    1  UNL1       -0.2901
      8 C         139.3192  144.7717  163.8331 C.3     1  UNL1        0.0954
      9 C         139.2939  144.1840  165.2129 C.3     1  UNL1        0.0292
     10 H         142.0350  143.7295  160.7131 H       1  UNL1        0.1509
     11 C         139.5671  140.0359  166.3519 C.3     1  UNL1        0.0390
     12 C         139.9310  141.1191  167.3237 C.ar    1  UNL1        0.0669
     13 C         140.0277  140.9711  168.8132 C.ar    1  UNL1        0.2563
     14 O         139.7773  139.7140  169.5925 O.3     1  UNL1       -0.4902
     15 N         140.4186  142.3009  169.3868 N.ar    1  UNL1       -0.0397
     16 O         140.5635  143.2707  168.2516 O.2     1  UNL1       -0.3552
     17 C         140.2622  142.5403  166.9766 C.ar    1  UNL1        0.1532
     18 H         139.5361  138.9263  169.1461 H       1  UNL1        0.2938
     19 C         141.4082  145.0103  159.0812 C.3     1  UNL1        0.0774
     20 C         142.1005  145.8242  158.0285 C.3     1  UNL1        0.0259
     21 C         140.7600  145.2143  157.7440 C.3     1  UNL1        0.0420
     22 C         139.6118  144.9799  156.8077 C.ar    1  UNL1       -0.0208
     23 C         139.1471  146.0803  155.9005 C.ar    1  UNL1       -0.0042
     24 C         137.9988  145.8459  154.9643 C.ar    1  UNL1       -0.0003
     25 C         137.3153  144.5110  154.9352 C.ar    1  UNL1       -0.0000
     26 C         137.7800  143.4105  155.8424 C.ar    1  UNL1       -0.0003
     27 C         138.9283  143.6450  156.7787 C.ar    1  UNL1       -0.0042
@<TRIPOS>BOND
     1    11    12    1
     2    12    13   ar
     3    13    14    1
     4    13    15   ar
     5    15    16   ar
     6    16    17   ar
     7    17     1    1
     8     1     2    1
     9     2     3    1
    10     3     4    1
    11     4     5   am
    12     5     6    2
    13     5     7   am
    14     7    19    1
    15    19    20    1
    16    20    21    1
    17    21    22    1
    18    22    23   ar
    19    23    24   ar
    20    24    25   ar
    21    25    26   ar
    22    26    27   ar
    23     4     8    1
    24     8     9    1
    25    17    12   ar
    26     9     1    1
    27    21    19    1
    28    27    22   ar
    29    14    18    1
    30     7    10    1
@<TRIPOS>MOLECULE
*****
 27 30 0 0 0
SMALL
GASTEIGER

@<TRIPOS>ATOM
      1 C         139.3676  140.6020  160.2421 C.3     1  UNL1        0.0634
      2 C         140.7443  140.0762  160.5215 C.3     1  UNL1        0.0292
      3 C         141.3786  139.0966  159.5792 C.3     1  UNL1        0.0954
      4 N         140.6362  138.6428  158.3574 N.am    1  UNL1       -0.2642
      5 C         141.2705  137.6631  157.4151 C.2     1  UNL1        0.3039
      6 O         140.5281  137.2093  156.1933 O.2     1  UNL1       -0.2526
      7 N         142.6473  137.1374  157.6945 N.am    1  UNL1       -0.2901
      8 C         139.2594  139.1685  158.0780 C.3     1  UNL1        0.0954
      9 C         138.6251  140.1481  159.0203 C.3     1  UNL1        0.0292
     10 H         143.1345  137.4353  158.4964 H       1  UNL1        0.1509
     11 C         138.2654  139.9402  163.2416 C.3     1  UNL1        0.0390
     12 C         138.2266  141.2774  162.5631 C.ar    1  UNL1        0.0669
     13 C         137.6744  142.5452  163.1443 C.ar    1  UNL1        0.2563
     14 O         137.0641  142.6984  164.5059 O.3     1  UNL1       -0.4902
     15 N         137.8398  143.6330  162.1247 N.ar    1  UNL1       -0.0397
     16 O         138.4942  143.0374  160.9135 O.2     1  UNL1       -0.3552
     17 C         138.7332  141.5816  161.1844 C.ar    1  UNL1        0.1532
     18 H         137.0028  141.9587  165.0777 H       1  UNL1        0.2938
     19 C         143.2816  136.1578  156.7521 C.3     1  UNL1        0.0774
     20 C         143.9737  135.8658  155.4538 C.3     1  UNL1        0.0259
     21 C         143.6882  134.7530  156.4183 C.3     1  UNL1        0.0420
     22 C         143.7581  133.2996  156.7824 C.ar    1  UNL1       -0.0208
     23 C         144.8737  132.7966  157.6499 C.ar    1  UNL1       -0.0042
     24 C         144.9436  131.3431  158.0140 C.ar    1  UNL1       -0.0003
     25 C         143.8979  130.3927  157.5107 C.ar    1  UNL1       -0.0000
     26 C         142.7823  130.8958  156.6433 C.ar    1  UNL1       -0.0003
     27 C         142.7124  132.3493  156.2792 C.ar    1  UNL1       -0.0042
@<TRIPOS>BOND
     1    11    12    1
     2    12    13   ar
     3    13    14    1
     4    13    15   ar
     5    15    16   ar
     6    16    17   ar
     7    17     1    1
     8     1     2    1
     9     2     3    1
    10     3     4    1
    11     4     5   am
    12     5     6    2
    13     5     7   am
    14     7    19    1
    15    19    20    1
    16    20    21    1
    17    21    22    1
    18    22    23   ar
    19    23    24   ar
    20    24    25   ar
    21    25    26   ar
    22    26    27   ar
    23     4     8    1
    24     8     9    1
    25    17    12   ar
    26     9     1    1
    27    21    19    1
    28    27    22   ar
    29    14    18    1
    30     7    10    1
@<TRIPOS>MOLECULE
*****
 27 30 0 0 0
SMALL
GASTEIGER

@<TRIPOS>ATOM
      1 C         142.3555  141.6379  166.7651 C.3     1  UNL1        0.0634
      2 C         141.0726  141.4890  166.0023 C.3     1  UNL1        0.0292
      3 C         140.9083  142.1629  164.6723 C.3     1  UNL1        0.0954
      4 N         142.0269  142.9857  164.1052 N.am    1  UNL1       -0.2642
      5 C         141.8626  143.6597  162.7752 C.2     1  UNL1        0.3039
      6 O         142.9812  144.4825  162.2081 O.2     1  UNL1       -0.2526
      7 N         140.5797  143.5107  162.0124 N.am    1  UNL1       -0.2901
      8 C         143.3098  143.1347  164.8680 C.3     1  UNL1        0.0954
      9 C         143.4741  142.4608  166.1980 C.3     1  UNL1        0.0292
     10 H         139.8455  142.9706  162.3846 H       1  UNL1        0.1509
     11 C         141.6947  142.9542  169.6772 C.3     1  UNL1        0.0390
     12 C         142.2161  141.5690  169.4336 C.ar    1  UNL1        0.0669
     13 C         142.5254  140.5457  170.4858 C.ar    1  UNL1        0.2563
     14 O         142.3674  140.7279  171.9664 O.3     1  UNL1       -0.4902
     15 N         143.0203  139.3081  169.7976 N.ar    1  UNL1       -0.0397
     16 O         143.0169  139.5667  168.3201 O.2     1  UNL1       -0.3552
     17 C         142.5199  140.9640  168.0951 C.ar    1  UNL1        0.1532
     18 H         142.0492  141.5406  172.3071 H       1  UNL1        0.2938
     19 C         140.4153  144.1846  160.6823 C.3     1  UNL1        0.0774
     20 C         140.5322  145.4084  159.8229 C.3     1  UNL1        0.0259
     21 C         140.0139  144.1281  159.2382 C.3     1  UNL1        0.0420
     22 C         139.4828  143.3562  158.0668 C.ar    1  UNL1       -0.0208
     23 C         140.2367  143.3480  156.7700 C.ar    1  UNL1       -0.0042
     24 C         139.7056  142.5761  155.5987 C.ar    1  UNL1       -0.0003
     25 C         138.4206  141.8124  155.7241 C.ar    1  UNL1       -0.0000
     26 C         137.6668  141.8206  157.0208 C.ar    1  UNL1       -0.0003
     27 C         138.1979  142.5925  158.1922 C.ar    1  UNL1       -0.0042
@<TRIPOS>BOND
     1    11    12    1
     2    12    13   ar
     3    13    14    1
     4    13    15   ar
     5    15    16   ar
     6    16    17   ar
     7    17     1    1
     8     1     2    1
     9     2     3    1
    10     3     4    1
    11     4     5   am
    12     5     6    2
    13     5     7   am
    14     7    19    1
    15    19    20    1
    16    20    21    1
    17    21    22    1
    18    22    23   ar
    19    23    24   ar
    20    24    25   ar
    21    25    26   ar
    22    26    27   ar
    23     4     8    1
    24     8     9    1
    25    17    12   ar
    26     9     1    1
    27    21    19    1
    28    27    22   ar
    29    14    18    1
    30     7    10    1
@<TRIPOS>MOLECULE
*****
 27 30 0 0 0
SMALL
GASTEIGER

@<TRIPOS>ATOM
      1 C         142.6874  140.9337  166.7236 C.3     1  UNL1        0.0634
      2 C         142.3477  140.1637  165.4820 C.3     1  UNL1        0.0292
      3 C         142.6894  140.7258  164.1340 C.3     1  UNL1        0.0954
      4 N         143.3707  142.0579  164.0276 N.am    1  UNL1       -0.2642
      5 C         143.7123  142.6200  162.6794 C.2     1  UNL1        0.3039
      6 O         144.3936  143.9521  162.5730 O.2     1  UNL1       -0.2526
      7 N         143.3727  141.8500  161.4378 N.am    1  UNL1       -0.2901
      8 C         143.7103  142.8279  165.2692 C.3     1  UNL1        0.0954
      9 C         143.3686  142.2658  166.6172 C.3     1  UNL1        0.0292
     10 H         142.9255  140.9757  161.5076 H       1  UNL1        0.1509
     11 C         140.4227  142.0929  168.7675 C.3     1  UNL1        0.0390
     12 C         141.3048  140.9044  169.0112 C.ar    1  UNL1        0.0669
     13 C         141.3008  140.0401  170.2371 C.ar    1  UNL1        0.2563
     14 O         140.4140  140.2126  171.4346 O.3     1  UNL1       -0.4902
     15 N         142.3393  138.9731  170.0554 N.ar    1  UNL1       -0.0397
     16 O         142.9851  139.1780  168.7171 O.2     1  UNL1       -0.3552
     17 C         142.3457  140.3716  168.0718 C.ar    1  UNL1        0.1532
     18 H         139.7912  140.9121  171.4595 H       1  UNL1        0.2938
     19 C         143.7143  142.4121  160.0896 C.3     1  UNL1        0.0774
     20 C         144.6750  142.5527  158.9464 C.3     1  UNL1        0.0259
     21 C         143.3453  143.2450  158.8980 C.3     1  UNL1        0.0420
     22 C         142.3645  144.1256  158.1821 C.ar    1  UNL1       -0.0208
     23 C         141.3803  144.9433  158.9648 C.ar    1  UNL1       -0.0042
     24 C         140.3995  145.8239  158.2489 C.ar    1  UNL1       -0.0003
     25 C         140.4029  145.8868  156.7502 C.ar    1  UNL1       -0.0000
     26 C         141.3870  145.0691  155.9674 C.ar    1  UNL1       -0.0003
     27 C         142.3679  144.1884  156.6834 C.ar    1  UNL1       -0.0042
@<TRIPOS>BOND
     1    11    12    1
     2    12    13   ar
     3    13    14    1
     4    13    15   ar
     5    15    16   ar
     6    16    17   ar
     7    17     1    1
     8     1     2    1
     9     2     3    1
    10     3     4    1
    11     4     5   am
    12     5     6    2
    13     5     7   am
    14     7    19    1
    15    19    20    1
    16    20    21    1
    17    21    22    1
    18    22    23   ar
    19    23    24   ar
    20    24    25   ar
    21    25    26   ar
    22    26    27   ar
    23     4     8    1
    24     8     9    1
    25    17    12   ar
    26     9     1    1
    27    21    19    1
    28    27    22   ar
    29    14    18    1
    30     7    10    1
