@<TRIPOS>MOLECULE
*****
 33 37 0 0 0
SMALL
GASTEIGER

@<TRIPOS>ATOM
      1 N         139.7917  138.4842  162.0310 N.3     1  UNL1       -0.2695
      2 C         139.7297  138.2215  163.5065 C.3     1  UNL1        0.0939
      3 C         140.9735  138.3216  164.3390 C.3     1  UNL1        0.1107
      4 N         142.2793  138.6843  163.6960 N.am    1  UNL1       -0.2764
      5 C         143.5230  138.7843  164.5286 C.2     1  UNL1        0.2301
      6 O         144.8287  139.1470  163.8856 O.2     1  UNL1       -0.2745
      7 C         142.3412  138.9470  162.2205 C.3     1  UNL1        0.1107
      8 C         141.0975  138.8469  161.3880 C.3     1  UNL1        0.0939
      9 C         138.5480  138.3842  161.1985 C.3     1  UNL1        0.0769
     10 C         137.6565  139.5794  161.0353 C.3     1  UNL1        0.0433
     11 C         139.1028  141.9231  159.8455 C.3     1  UNL1        0.0305
     12 C         138.6177  141.9824  161.2637 C.ar    1  UNL1       -0.0260
     13 C         137.8945  140.8106  161.8587 C.ar    1  UNL1       -0.0249
     14 C         137.4095  140.8698  163.2768 C.ar    1  UNL1       -0.0043
     15 C         137.6475  142.1009  164.1000 C.ar    1  UNL1        0.0059
     16 C         138.3706  143.2727  163.5052 C.ar    1  UNL1        0.0748
     17 C         138.8557  143.2135  162.0870 C.ar    1  UNL1        0.0233
     18 C         139.5334  144.5146  161.7742 C.3     1  UNL1        0.2352
     19 O         139.4671  145.3780  162.9990 O.3     1  UNL1       -0.4404
     20 C         138.7484  144.6105  164.0688 C.2     1  UNL1        0.3413
     21 O         138.4586  145.0955  165.4583 O.2     1  UNL1       -0.2449
     22 C         143.4609  138.5216  166.0041 C.3     1  UNL1        0.1116
     23 C         142.7356  139.4759  166.9059 C.ar    1  UNL1       -0.0130
     24 C         142.5533  139.1445  168.3574 C.ar    1  UNL1       -0.0022
     25 C         141.8280  140.0988  169.2593 C.ar    1  UNL1        0.0190
     26 C         141.2849  141.3844  168.7096 C.ar    1  UNL1        0.0862
     27 C         141.4672  141.7157  167.2580 C.ar    1  UNL1        0.0190
     28 C         142.1925  140.7615  166.3561 C.ar    1  UNL1       -0.0022
     29 N         140.5595  142.3387  169.6113 N.ar    1  UNL1       -0.1886
     30 C         140.6337  143.8357  169.5534 C.ar    1  UNL1        0.2258
     31 N         139.7527  144.3856  170.6356 N.ar    1  UNL1       -0.1045
     32 N         139.1339  143.2285  171.3625 N.ar    1  UNL1       -0.0222
     33 N         139.6326  141.9634  170.7293 N.ar    1  UNL1       -0.0385
@<TRIPOS>BOND
     1    11    12    1
     2    12    13   ar
     3    13    10    1
     4    10     9    1
     5     9     1    1
     6     1     2    1
     7     2     3    1
     8     3     4    1
     9     4     5   am
    10     5     6    2
    11     5    22    1
    12    22    23    1
    13    23    24   ar
    14    24    25   ar
    15    25    26   ar
    16    26    29    1
    17    29    30   ar
    18    30    31   ar
    19    31    32   ar
    20    32    33   ar
    21    26    27   ar
    22    27    28   ar
    23     4     7    1
    24     7     8    1
    25    13    14   ar
    26    14    15   ar
    27    15    16   ar
    28    16    17   ar
    29    17    18    1
    30    18    19    1
    31    19    20    1
    32    20    21    2
    33    17    12   ar
    34     8     1    1
    35    20    16    1
    36    28    23   ar
    37    33    29   ar
@<TRIPOS>MOLECULE
*****
 33 37 0 0 0
SMALL
GASTEIGER

@<TRIPOS>ATOM
      1 N         142.7614  141.5938  160.9909 N.3     1  UNL1       -0.2695
      2 C         143.4810  141.4789  162.3020 C.3     1  UNL1        0.0939
      3 C         143.2041  140.3175  163.2102 C.3     1  UNL1        0.1107
      4 N         142.2077  139.2712  162.8072 N.am    1  UNL1       -0.2764
      5 C         141.9310  138.1099  163.7154 C.2     1  UNL1        0.2301
      6 O         140.9346  137.0636  163.3125 O.2     1  UNL1       -0.2745
      7 C         141.4881  139.3862  161.4961 C.3     1  UNL1        0.1107
      8 C         141.7650  140.5474  160.5880 C.3     1  UNL1        0.0939
      9 C         143.0381  142.7551  160.0827 C.3     1  UNL1        0.0769
     10 C         142.3267  144.0586  160.2940 C.3     1  UNL1        0.0433
     11 C         139.4361  143.2628  160.1872 C.3     1  UNL1        0.0305
     12 C         140.0061  143.8510  161.4439 C.ar    1  UNL1       -0.0260
     13 C         141.4515  144.2490  161.4973 C.ar    1  UNL1       -0.0249
     14 C         142.0215  144.8372  162.7538 C.ar    1  UNL1       -0.0043
     15 C         141.1463  145.0276  163.9570 C.ar    1  UNL1        0.0059
     16 C         139.7010  144.6297  163.9037 C.ar    1  UNL1        0.0748
     17 C         139.1309  144.0414  162.6471 C.ar    1  UNL1        0.0233
     18 C         137.6806  143.7456  162.8901 C.3     1  UNL1        0.2352
     19 O         137.3543  144.1511  164.2969 O.3     1  UNL1       -0.4404
     20 C         138.6030  144.6975  164.9233 C.2     1  UNL1        0.3413
     21 O         138.7311  145.2199  166.3236 O.2     1  UNL1       -0.2449
     22 C         142.6506  137.9950  165.0265 C.3     1  UNL1        0.1116
     23 C         142.1978  138.8063  166.2041 C.ar    1  UNL1       -0.0130
     24 C         140.8532  139.4710  166.1844 C.ar    1  UNL1       -0.0022
     25 C         140.4004  140.2824  167.3620 C.ar    1  UNL1        0.0190
     26 C         141.2921  140.4291  168.5593 C.ar    1  UNL1        0.0862
     27 C         142.6366  139.7643  168.5789 C.ar    1  UNL1        0.0190
     28 C         143.0895  138.9530  167.4013 C.ar    1  UNL1       -0.0022
     29 N         140.8393  141.2404  169.7368 N.ar    1  UNL1       -0.1886
     30 C         141.3549  141.1211  171.1404 C.ar    1  UNL1        0.2258
     31 N         140.6257  142.1205  171.9885 N.ar    1  UNL1       -0.1045
     32 N         139.6593  142.8575  171.1092 N.ar    1  UNL1       -0.0222
     33 N         139.7914  142.3135  169.7176 N.ar    1  UNL1       -0.0385
@<TRIPOS>BOND
     1    11    12    1
     2    12    13   ar
     3    13    10    1
     4    10     9    1
     5     9     1    1
     6     1     2    1
     7     2     3    1
     8     3     4    1
     9     4     5   am
    10     5     6    2
    11     5    22    1
    12    22    23    1
    13    23    24   ar
    14    24    25   ar
    15    25    26   ar
    16    26    29    1
    17    29    30   ar
    18    30    31   ar
    19    31    32   ar
    20    32    33   ar
    21    26    27   ar
    22    27    28   ar
    23     4     7    1
    24     7     8    1
    25    13    14   ar
    26    14    15   ar
    27    15    16   ar
    28    16    17   ar
    29    17    18    1
    30    18    19    1
    31    19    20    1
    32    20    21    2
    33    17    12   ar
    34     8     1    1
    35    20    16    1
    36    28    23   ar
    37    33    29   ar
@<TRIPOS>MOLECULE
*****
 33 37 0 0 0
SMALL
GASTEIGER

@<TRIPOS>ATOM
      1 N         143.9112  140.4815  161.0986 N.3     1  UNL1       -0.2695
      2 C         144.4564  140.6771  162.4822 C.3     1  UNL1        0.0939
      3 C         143.9319  139.8505  163.6188 C.3     1  UNL1        0.1107
      4 N         142.8622  138.8284  163.3717 N.am    1  UNL1       -0.2764
      5 C         142.3377  138.0019  164.5083 C.2     1  UNL1        0.2301
      6 O         141.2680  136.9798  164.2613 O.2     1  UNL1       -0.2745
      7 C         142.3170  138.6329  161.9880 C.3     1  UNL1        0.1107
      8 C         142.8415  139.4594  160.8515 C.3     1  UNL1        0.0939
      9 C         144.4356  141.3080  159.9620 C.3     1  UNL1        0.0769
     10 C         143.9312  142.7055  159.7556 C.3     1  UNL1        0.0433
     11 C         144.1357  144.1306  162.3876 C.3     1  UNL1        0.0305
     12 C         142.7904  143.8781  161.7741 C.ar    1  UNL1       -0.0260
     13 C         142.6881  143.1655  160.4580 C.ar    1  UNL1       -0.0249
     14 C         141.3429  142.9130  159.8444 C.ar    1  UNL1       -0.0043
     15 C         140.0999  143.3731  160.5468 C.ar    1  UNL1        0.0059
     16 C         140.2022  144.0856  161.8627 C.ar    1  UNL1        0.0748
     17 C         141.5474  144.3381  162.4764 C.ar    1  UNL1        0.0233
     18 C         141.3368  145.0600  163.7743 C.3     1  UNL1        0.2352
     19 O         139.8613  145.2537  163.9628 O.3     1  UNL1       -0.4404
     20 C         139.1601  144.6514  162.7814 C.2     1  UNL1        0.3413
     21 O         137.6772  144.6205  162.5579 O.2     1  UNL1       -0.2449
     22 C         142.8830  138.1975  165.8920 C.3     1  UNL1        0.1116
     23 C         142.2595  139.2088  166.8076 C.ar    1  UNL1       -0.0130
     24 C         141.2039  140.1399  166.2891 C.ar    1  UNL1       -0.0022
     25 C         140.5804  141.1513  167.2048 C.ar    1  UNL1        0.0190
     26 C         141.0124  141.2316  168.6389 C.ar    1  UNL1        0.0862
     27 C         142.0681  140.3005  169.1574 C.ar    1  UNL1        0.0190
     28 C         142.6916  139.2892  168.2418 C.ar    1  UNL1       -0.0022
     29 N         140.3890  142.2429  169.5546 N.ar    1  UNL1       -0.1886
     30 C         140.5564  143.7311  169.4693 C.ar    1  UNL1        0.2258
     31 N         139.7595  144.3515  170.5784 N.ar    1  UNL1       -0.1045
     32 N         139.0996  143.2467  171.3492 N.ar    1  UNL1       -0.0222
     33 N         139.4887  141.9436  170.7164 N.ar    1  UNL1       -0.0385
@<TRIPOS>BOND
     1    11    12    1
     2    12    13   ar
     3    13    10    1
     4    10     9    1
     5     9     1    1
     6     1     2    1
     7     2     3    1
     8     3     4    1
     9     4     5   am
    10     5     6    2
    11     5    22    1
    12    22    23    1
    13    23    24   ar
    14    24    25   ar
    15    25    26   ar
    16    26    29    1
    17    29    30   ar
    18    30    31   ar
    19    31    32   ar
    20    32    33   ar
    21    26    27   ar
    22    27    28   ar
    23     4     7    1
    24     7     8    1
    25    13    14   ar
    26    14    15   ar
    27    15    16   ar
    28    16    17   ar
    29    17    18    1
    30    18    19    1
    31    19    20    1
    32    20    21    2
    33    17    12   ar
    34     8     1    1
    35    20    16    1
    36    28    23   ar
    37    33    29   ar
@<TRIPOS>MOLECULE
*****
 33 37 0 0 0
SMALL
GASTEIGER

@<TRIPOS>ATOM
      1 N         141.6633  138.7113  160.2892 N.3     1  UNL1       -0.2695
      2 C         141.4801  137.9754  161.5834 C.3     1  UNL1        0.0939
      3 C         142.3659  138.2847  162.7538 C.3     1  UNL1        0.1107
      4 N         143.4347  139.3298  162.6301 N.am    1  UNL1       -0.2764
      5 C         144.3204  139.6390  163.8005 C.2     1  UNL1        0.2301
      6 O         145.3892  140.6841  163.6768 O.2     1  UNL1       -0.2745
      7 C         143.6178  140.0657  161.3358 C.3     1  UNL1        0.1107
      8 C         142.7321  139.7565  160.1655 C.3     1  UNL1        0.0939
      9 C         140.7776  138.4021  159.1188 C.3     1  UNL1        0.0769
     10 C         139.4125  139.0173  159.0280 C.3     1  UNL1        0.0433
     11 C         137.9010  138.6828  161.5977 C.3     1  UNL1        0.0305
     12 C         138.3184  140.0509  161.1458 C.ar    1  UNL1       -0.0260
     13 C         139.0742  140.2182  159.8609 C.ar    1  UNL1       -0.0249
     14 C         139.4915  141.5861  159.4089 C.ar    1  UNL1       -0.0043
     15 C         139.1532  142.7869  160.2417 C.ar    1  UNL1        0.0059
     16 C         138.3974  142.6197  161.5266 C.ar    1  UNL1        0.0748
     17 C         137.9800  141.2517  161.9786 C.ar    1  UNL1        0.0233
     18 C         137.2502  141.3964  163.2811 C.3     1  UNL1        0.2352
     19 O         137.2166  142.8539  163.6340 O.3     1  UNL1       -0.4404
     20 C         137.9256  143.6099  162.5497 C.2     1  UNL1        0.3413
     21 O         138.1274  145.0954  162.4977 O.2     1  UNL1       -0.2449
     22 C         144.1373  138.9030  165.0947 C.3     1  UNL1        0.1116
     23 C         143.4343  139.5665  166.2416 C.ar    1  UNL1       -0.0130
     24 C         143.0604  138.7679  167.4551 C.ar    1  UNL1       -0.0022
     25 C         142.3573  139.4313  168.6022 C.ar    1  UNL1        0.0190
     26 C         142.0281  140.8932  168.5358 C.ar    1  UNL1        0.0862
     27 C         142.4020  141.6917  167.3222 C.ar    1  UNL1        0.0190
     28 C         143.1051  141.0284  166.1752 C.ar    1  UNL1       -0.0022
     29 N         141.3251  141.5566  169.6827 N.ar    1  UNL1       -0.1886
     30 C         140.1251  142.4510  169.5829 C.ar    1  UNL1        0.2258
     31 N         139.7570  142.8892  170.9694 N.ar    1  UNL1       -0.1045
     32 N         140.7296  142.2657  171.9263 N.ar    1  UNL1       -0.0222
     33 N         141.6987  141.4421  171.1309 N.ar    1  UNL1       -0.0385
@<TRIPOS>BOND
     1    11    12    1
     2    12    13   ar
     3    13    10    1
     4    10     9    1
     5     9     1    1
     6     1     2    1
     7     2     3    1
     8     3     4    1
     9     4     5   am
    10     5     6    2
    11     5    22    1
    12    22    23    1
    13    23    24   ar
    14    24    25   ar
    15    25    26   ar
    16    26    29    1
    17    29    30   ar
    18    30    31   ar
    19    31    32   ar
    20    32    33   ar
    21    26    27   ar
    22    27    28   ar
    23     4     7    1
    24     7     8    1
    25    13    14   ar
    26    14    15   ar
    27    15    16   ar
    28    16    17   ar
    29    17    18    1
    30    18    19    1
    31    19    20    1
    32    20    21    2
    33    17    12   ar
    34     8     1    1
    35    20    16    1
    36    28    23   ar
    37    33    29   ar
@<TRIPOS>MOLECULE
*****
 33 37 0 0 0
SMALL
GASTEIGER

@<TRIPOS>ATOM
      1 N         138.4142  141.6828  162.2917 N.3     1  UNL1       -0.2695
      2 C         138.2188  142.0851  163.7235 C.3     1  UNL1        0.0939
      3 C         138.2518  141.0467  164.8055 C.3     1  UNL1        0.1107
      4 N         138.4801  139.6060  164.4557 N.am    1  UNL1       -0.2764
      5 C         138.5131  138.5677  165.5377 C.2     1  UNL1        0.2301
      6 O         138.7414  137.1270  165.1880 O.2     1  UNL1       -0.2745
      7 C         138.6755  139.2037  163.0239 C.3     1  UNL1        0.1107
      8 C         138.6425  140.2421  161.9420 C.3     1  UNL1        0.0939
      9 C         138.3812  142.7211  161.2097 C.3     1  UNL1        0.0769
     10 C         139.6068  143.5329  160.9116 C.3     1  UNL1        0.0433
     11 C         141.8551  141.5748  160.5779 C.3     1  UNL1        0.0305
     12 C         141.8798  142.5594  161.7093 C.ar    1  UNL1       -0.0260
     13 C         140.7556  143.5385  161.8762 C.ar    1  UNL1       -0.0249
     14 C         140.7802  144.5230  163.0075 C.ar    1  UNL1       -0.0043
     15 C         141.9290  144.5286  163.9720 C.ar    1  UNL1        0.0059
     16 C         143.0531  143.5496  163.8052 C.ar    1  UNL1        0.0748
     17 C         143.0286  142.5650  162.6738 C.ar    1  UNL1        0.0233
     18 C         144.2690  141.7263  162.7622 C.3     1  UNL1        0.2352
     19 O         145.0602  142.1925  163.9482 O.3     1  UNL1       -0.4404
     20 C         144.3088  143.3194  164.5928 C.2     1  UNL1        0.3413
     21 O         144.7377  144.0821  165.8111 O.2     1  UNL1       -0.2449
     22 C         138.3178  138.9700  166.9695 C.3     1  UNL1        0.1116
     23 C         139.3449  139.8204  167.6563 C.ar    1  UNL1       -0.0130
     24 C         139.0647  140.3810  169.0191 C.ar    1  UNL1       -0.0022
     25 C         140.0919  141.2315  169.7060 C.ar    1  UNL1        0.0190
     26 C         141.3993  141.5212  169.0302 C.ar    1  UNL1        0.0862
     27 C         141.6794  140.9605  167.6674 C.ar    1  UNL1        0.0190
     28 C         140.6523  140.1101  166.9805 C.ar    1  UNL1       -0.0022
     29 N         142.4264  142.3716  169.7170 N.ar    1  UNL1       -0.1886
     30 C         143.9108  142.2974  169.5144 C.ar    1  UNL1        0.2258
     31 N         144.5513  143.3254  170.3992 N.ar    1  UNL1       -0.1045
     32 N         143.4627  144.0350  171.1487 N.ar    1  UNL1       -0.0222
     33 N         142.1495  143.4454  170.7270 N.ar    1  UNL1       -0.0385
@<TRIPOS>BOND
     1    11    12    1
     2    12    13   ar
     3    13    10    1
     4    10     9    1
     5     9     1    1
     6     1     2    1
     7     2     3    1
     8     3     4    1
     9     4     5   am
    10     5     6    2
    11     5    22    1
    12    22    23    1
    13    23    24   ar
    14    24    25   ar
    15    25    26   ar
    16    26    29    1
    17    29    30   ar
    18    30    31   ar
    19    31    32   ar
    20    32    33   ar
    21    26    27   ar
    22    27    28   ar
    23     4     7    1
    24     7     8    1
    25    13    14   ar
    26    14    15   ar
    27    15    16   ar
    28    16    17   ar
    29    17    18    1
    30    18    19    1
    31    19    20    1
    32    20    21    2
    33    17    12   ar
    34     8     1    1
    35    20    16    1
    36    28    23   ar
    37    33    29   ar
@<TRIPOS>MOLECULE
*****
 33 37 0 0 0
SMALL
GASTEIGER

@<TRIPOS>ATOM
      1 N         142.4140  142.1877  159.8356 N.3     1  UNL1       -0.2695
      2 C         142.0171  141.0249  160.6961 C.3     1  UNL1        0.0939
      3 C         142.9006  140.5945  161.8294 C.3     1  UNL1        0.1107
      4 N         144.1809  141.3268  162.1022 N.am    1  UNL1       -0.2764
      5 C         145.0643  140.8964  163.2355 C.2     1  UNL1        0.2301
      6 O         146.3446  141.6287  163.5083 O.2     1  UNL1       -0.2745
      7 C         144.5778  142.4896  161.2417 C.3     1  UNL1        0.1107
      8 C         143.6944  142.9200  160.1084 C.3     1  UNL1        0.0939
      9 C         141.5307  142.6181  158.7023 C.3     1  UNL1        0.0769
     10 C         140.4020  143.5740  158.9525 C.3     1  UNL1        0.0433
     11 C         138.4227  141.7097  160.2202 C.3     1  UNL1        0.0305
     12 C         138.9375  142.8916  160.9872 C.ar    1  UNL1       -0.0260
     13 C         139.9272  143.8238  160.3533 C.ar    1  UNL1       -0.0249
     14 C         140.4420  145.0055  161.1202 C.ar    1  UNL1       -0.0043
     15 C         139.9673  145.2553  162.5209 C.ar    1  UNL1        0.0059
     16 C         138.9776  144.3233  163.1548 C.ar    1  UNL1        0.0748
     17 C         138.4627  143.1414  162.3879 C.ar    1  UNL1        0.0233
     18 C         137.4995  142.4015  163.2681 C.3     1  UNL1        0.2352
     19 O         137.4191  143.1262  164.5790 O.3     1  UNL1       -0.4404
     20 C         138.3326  144.3138  164.5090 C.2     1  UNL1        0.3413
     21 O         138.5609  145.3161  165.6014 O.2     1  UNL1       -0.2449
     22 C         144.6673  139.7336  164.0960 C.3     1  UNL1        0.1116
     23 C         143.7744  139.9487  165.2819 C.ar    1  UNL1       -0.0130
     24 C         143.5123  138.8224  166.2373 C.ar    1  UNL1       -0.0022
     25 C         142.6194  139.0374  167.4233 C.ar    1  UNL1        0.0190
     26 C         141.9886  140.3786  167.6539 C.ar    1  UNL1        0.0862
     27 C         142.2508  141.5049  166.6984 C.ar    1  UNL1        0.0190
     28 C         143.1437  141.2899  165.5125 C.ar    1  UNL1       -0.0022
     29 N         141.0957  140.5937  168.8398 N.ar    1  UNL1       -0.1886
     30 C         140.3360  141.8479  169.1556 C.ar    1  UNL1        0.2258
     31 N         139.5765  141.6215  170.4291 N.ar    1  UNL1       -0.1045
     32 N         139.8669  140.2274  170.9006 N.ar    1  UNL1       -0.0222
     33 N         140.8058  139.5922  169.9182 N.ar    1  UNL1       -0.0385
@<TRIPOS>BOND
     1    11    12    1
     2    12    13   ar
     3    13    10    1
     4    10     9    1
     5     9     1    1
     6     1     2    1
     7     2     3    1
     8     3     4    1
     9     4     5   am
    10     5     6    2
    11     5    22    1
    12    22    23    1
    13    23    24   ar
    14    24    25   ar
    15    25    26   ar
    16    26    29    1
    17    29    30   ar
    18    30    31   ar
    19    31    32   ar
    20    32    33   ar
    21    26    27   ar
    22    27    28   ar
    23     4     7    1
    24     7     8    1
    25    13    14   ar
    26    14    15   ar
    27    15    16   ar
    28    16    17   ar
    29    17    18    1
    30    18    19    1
    31    19    20    1
    32    20    21    2
    33    17    12   ar
    34     8     1    1
    35    20    16    1
    36    28    23   ar
    37    33    29   ar
@<TRIPOS>MOLECULE
*****
 33 37 0 0 0
SMALL
GASTEIGER

@<TRIPOS>ATOM
      1 N         142.2226  139.6865  165.9680 N.3     1  UNL1       -0.2695
      2 C         141.9136  138.4567  165.1668 C.3     1  UNL1        0.0939
      3 C         142.4813  138.2981  163.7874 C.3     1  UNL1        0.1107
      4 N         143.3577  139.3694  163.2092 N.am    1  UNL1       -0.2764
      5 C         143.9252  139.2107  161.8298 C.2     1  UNL1        0.2301
      6 O         144.8017  140.2820  161.2517 O.2     1  UNL1       -0.2745
      7 C         143.6666  140.5992  164.0105 C.3     1  UNL1        0.1107
      8 C         143.0990  140.7578  165.3899 C.3     1  UNL1        0.0939
      9 C         141.6550  139.8452  167.3474 C.3     1  UNL1        0.0769
     10 C         140.3748  140.6003  167.5494 C.3     1  UNL1        0.0433
     11 C         138.4494  139.3706  165.6050 C.3     1  UNL1        0.0305
     12 C         138.8439  140.8107  165.4608 C.ar    1  UNL1       -0.0260
     13 C         139.8066  141.4256  166.4330 C.ar    1  UNL1       -0.0249
     14 C         140.2011  142.8655  166.2889 C.ar    1  UNL1       -0.0043
     15 C         139.6330  143.6907  165.1725 C.ar    1  UNL1        0.0059
     16 C         138.6703  143.0759  164.2003 C.ar    1  UNL1        0.0748
     17 C         138.2758  141.6359  164.3444 C.ar    1  UNL1        0.0233
     18 C         137.3133  141.3063  163.2421 C.3     1  UNL1        0.2352
     19 O         137.1130  142.5427  162.4168 O.3     1  UNL1       -0.4404
     20 C         137.9516  143.6363  163.0089 C.2     1  UNL1        0.3413
     21 O         138.0537  145.0434  162.4992 O.2     1  UNL1       -0.2449
     22 C         143.6163  137.9809  161.0286 C.3     1  UNL1        0.1116
     23 C         142.5633  138.0260  159.9613 C.ar    1  UNL1       -0.0130
     24 C         141.2139  138.6074  160.2633 C.ar    1  UNL1       -0.0022
     25 C         140.1608  138.6526  159.1960 C.ar    1  UNL1        0.0190
     26 C         140.4571  138.1165  157.8268 C.ar    1  UNL1        0.0862
     27 C         141.8065  137.5351  157.5249 C.ar    1  UNL1        0.0190
     28 C         142.8596  137.4899  158.5921 C.ar    1  UNL1       -0.0022
     29 N         139.4041  138.1616  156.7596 N.ar    1  UNL1       -0.1886
     30 C         138.7555  139.3986  156.2126 C.ar    1  UNL1        0.2258
     31 N         137.7654  138.9792  155.1669 N.ar    1  UNL1       -0.1045
     32 N         137.8019  137.4828  155.0675 N.ar    1  UNL1       -0.0222
     33 N         138.8147  136.9777  156.0519 N.ar    1  UNL1       -0.0385
@<TRIPOS>BOND
     1    11    12    1
     2    12    13   ar
     3    13    10    1
     4    10     9    1
     5     9     1    1
     6     1     2    1
     7     2     3    1
     8     3     4    1
     9     4     5   am
    10     5     6    2
    11     5    22    1
    12    22    23    1
    13    23    24   ar
    14    24    25   ar
    15    25    26   ar
    16    26    29    1
    17    29    30   ar
    18    30    31   ar
    19    31    32   ar
    20    32    33   ar
    21    26    27   ar
    22    27    28   ar
    23     4     7    1
    24     7     8    1
    25    13    14   ar
    26    14    15   ar
    27    15    16   ar
    28    16    17   ar
    29    17    18    1
    30    18    19    1
    31    19    20    1
    32    20    21    2
    33    17    12   ar
    34     8     1    1
    35    20    16    1
    36    28    23   ar
    37    33    29   ar
@<TRIPOS>MOLECULE
*****
 33 37 0 0 0
SMALL
GASTEIGER

@<TRIPOS>ATOM
      1 N         142.0417  142.2705  166.8741 N.3     1  UNL1       -0.2695
      2 C         140.8033  142.8472  166.2547 C.3     1  UNL1        0.0939
      3 C         140.8979  143.6311  164.9792 C.3     1  UNL1        0.1107
      4 N         142.2309  143.8382  164.3233 N.am    1  UNL1       -0.2764
      5 C         142.3254  144.6221  163.0479 C.2     1  UNL1        0.2301
      6 O         143.6584  144.8292  162.3919 O.2     1  UNL1       -0.2745
      7 C         143.4693  143.2614  164.9428 C.3     1  UNL1        0.1107
      8 C         143.3747  142.4776  166.2182 C.3     1  UNL1        0.0939
      9 C         141.9472  141.4866  168.1495 C.3     1  UNL1        0.0769
     10 C         141.4579  140.0689  168.1240 C.3     1  UNL1        0.0433
     11 C         143.2124  138.7447  166.0823 C.3     1  UNL1        0.0305
     12 C         141.7338  138.8434  165.8497 C.ar    1  UNL1       -0.0260
     13 C         140.8565  139.5055  166.8705 C.ar    1  UNL1       -0.0249
     14 C         139.3780  139.6041  166.6380 C.ar    1  UNL1       -0.0043
     15 C         138.7766  139.0407  165.3846 C.ar    1  UNL1        0.0059
     16 C         139.6539  138.3786  164.3638 C.ar    1  UNL1        0.0748
     17 C         141.1324  138.2800  164.5963 C.ar    1  UNL1        0.0233
     18 C         141.7409  137.5766  163.4195 C.3     1  UNL1        0.2352
     19 O         140.6383  137.2405  162.4596 O.3     1  UNL1       -0.4404
     20 C         139.3484  137.7362  163.0432 C.2     1  UNL1        0.3413
     21 O         137.9915  137.6114  162.4162 O.2     1  UNL1       -0.2449
     22 C         141.0870  145.1988  162.4284 C.3     1  UNL1        0.1116
     23 C         140.3393  144.4228  161.3850 C.ar    1  UNL1       -0.0130
     24 C         139.2078  143.5236  161.7865 C.ar    1  UNL1       -0.0022
     25 C         138.4599  142.7476  160.7431 C.ar    1  UNL1        0.0190
     26 C         138.8436  142.8708  159.2982 C.ar    1  UNL1        0.0862
     27 C         139.9752  143.7700  158.8968 C.ar    1  UNL1        0.0190
     28 C         140.7230  144.5460  159.9402 C.ar    1  UNL1       -0.0022
     29 N         138.0959  142.0948  158.2548 N.ar    1  UNL1       -0.1886
     30 C         137.5466  142.6448  156.9719 C.ar    1  UNL1        0.2258
     31 N         136.8774  141.5225  156.2354 N.ar    1  UNL1       -0.1045
     32 N         137.0131  140.2788  157.0630 N.ar    1  UNL1       -0.0222
     33 N         137.7662  140.6326  158.3111 N.ar    1  UNL1       -0.0385
@<TRIPOS>BOND
     1    11    12    1
     2    12    13   ar
     3    13    10    1
     4    10     9    1
     5     9     1    1
     6     1     2    1
     7     2     3    1
     8     3     4    1
     9     4     5   am
    10     5     6    2
    11     5    22    1
    12    22    23    1
    13    23    24   ar
    14    24    25   ar
    15    25    26   ar
    16    26    29    1
    17    29    30   ar
    18    30    31   ar
    19    31    32   ar
    20    32    33   ar
    21    26    27   ar
    22    27    28   ar
    23     4     7    1
    24     7     8    1
    25    13    14   ar
    26    14    15   ar
    27    15    16   ar
    28    16    17   ar
    29    17    18    1
    30    18    19    1
    31    19    20    1
    32    20    21    2
    33    17    12   ar
    34     8     1    1
    35    20    16    1
    36    28    23   ar
    37    33    29   ar
@<TRIPOS>MOLECULE
*****
 33 37 0 0 0
SMALL
GASTEIGER

@<TRIPOS>ATOM
      1 N         139.7872  142.1053  160.9236 N.3     1  UNL1       -0.2695
      2 C         138.9414  142.0115  162.1589 C.3     1  UNL1        0.0939
      3 C         138.8761  140.7248  162.9272 C.3     1  UNL1        0.1107
      4 N         139.6567  139.5320  162.4604 N.am    1  UNL1       -0.2764
      5 C         139.5914  138.2455  163.2288 C.2     1  UNL1        0.2301
      6 O         140.3719  137.0526  162.7620 O.2     1  UNL1       -0.2745
      7 C         140.5025  139.6259  161.2251 C.3     1  UNL1        0.1107
      8 C         140.5677  140.9125  160.4568 C.3     1  UNL1        0.0939
      9 C         139.8525  143.3918  160.1552 C.3     1  UNL1        0.0769
     10 C         140.9721  144.3584  160.4046 C.3     1  UNL1        0.0433
     11 C         143.4050  142.6239  160.1352 C.3     1  UNL1        0.0305
     12 C         143.1026  143.2937  161.4429 C.ar    1  UNL1       -0.0260
     13 C         141.8861  144.1610  161.5776 C.ar    1  UNL1       -0.0249
     14 C         141.5836  144.8308  162.8851 C.ar    1  UNL1       -0.0043
     15 C         142.4976  144.6334  164.0581 C.ar    1  UNL1        0.0059
     16 C         143.7140  143.7661  163.9234 C.ar    1  UNL1        0.0748
     17 C         144.0165  143.0963  162.6158 C.ar    1  UNL1        0.0233
     18 C         145.2798  142.3047  162.7817 C.3     1  UNL1        0.2352
     19 O         145.7580  142.4853  164.1919 O.3     1  UNL1       -0.4404
     20 C         144.7903  143.3885  164.8975 C.2     1  UNL1        0.3413
     21 O         144.8827  143.8356  166.3264 O.2     1  UNL1       -0.2449
     22 C         138.7456  138.1517  164.4640 C.3     1  UNL1        0.1116
     23 C         139.1999  138.8053  165.7354 C.ar    1  UNL1       -0.0130
     24 C         138.2221  139.0418  166.8480 C.ar    1  UNL1       -0.0022
     25 C         138.6764  139.6954  168.1195 C.ar    1  UNL1        0.0190
     26 C         140.1084  140.1125  168.2783 C.ar    1  UNL1        0.0862
     27 C         141.0862  139.8759  167.1656 C.ar    1  UNL1        0.0190
     28 C         140.6320  139.2224  165.8942 C.ar    1  UNL1       -0.0022
     29 N         140.5627  140.7660  169.5496 N.ar    1  UNL1       -0.1886
     30 C         139.7067  141.5709  170.4820 C.ar    1  UNL1        0.2258
     31 N         140.5679  142.0318  171.6204 N.ar    1  UNL1       -0.1045
     32 N         141.9562  141.5118  171.3916 N.ar    1  UNL1       -0.0222
     33 N         141.9529  140.7295  170.1118 N.ar    1  UNL1       -0.0385
@<TRIPOS>BOND
     1    11    12    1
     2    12    13   ar
     3    13    10    1
     4    10     9    1
     5     9     1    1
     6     1     2    1
     7     2     3    1
     8     3     4    1
     9     4     5   am
    10     5     6    2
    11     5    22    1
    12    22    23    1
    13    23    24   ar
    14    24    25   ar
    15    25    26   ar
    16    26    29    1
    17    29    30   ar
    18    30    31   ar
    19    31    32   ar
    20    32    33   ar
    21    26    27   ar
    22    27    28   ar
    23     4     7    1
    24     7     8    1
    25    13    14   ar
    26    14    15   ar
    27    15    16   ar
    28    16    17   ar
    29    17    18    1
    30    18    19    1
    31    19    20    1
    32    20    21    2
    33    17    12   ar
    34     8     1    1
    35    20    16    1
    36    28    23   ar
    37    33    29   ar
