@<TRIPOS>MOLECULE
*****
 29 31 0 0 0
SMALL
GASTEIGER

@<TRIPOS>ATOM
      1 C         141.1381  140.3069  166.2622 C.ar    1  UNL1        0.0252
      2 C         139.9286  141.0113  165.7229 C.ar    1  UNL1       -0.0009
      3 C         139.0714  140.3445  164.6882 C.ar    1  UNL1        0.0210
      4 C         139.4237  138.9732  164.1928 C.ar    1  UNL1        0.1397
      5 F         138.5665  138.3062  163.1581 F       1  UNL1       -0.2044
      6 C         140.6332  138.2687  164.7321 C.ar    1  UNL1        0.0587
      7 C         141.4904  138.9356  165.7668 C.ar    1  UNL1        0.1401
      8 F         142.7000  138.2312  166.3061 F       1  UNL1       -0.2044
      9 C         144.2944  142.7671  169.9890 C.3     1  UNL1        0.0122
     10 C         143.2272  141.9013  169.3877 C.3     1  UNL1        0.0568
     11 C         143.0624  141.8396  167.8981 C.3     1  UNL1        0.0380
     12 C         141.9952  140.9738  167.2968 C.3     1  UNL1        0.1080
     13 C         142.6000  141.5462  166.0491 C.3     1  UNL1        0.0291
     14 N         141.0928  140.1698  168.1851 N.2     1  UNL1       -0.2509
     15 C         141.2576  140.2316  169.6747 C.2     1  UNL1        0.1481
     16 N         140.3552  139.4275  170.5631 N.pl3   1  UNL1       -0.3380
     17 S         142.3248  141.0973  170.2760 S.3     1  UNL1       -0.0816
     18 H         139.6547  138.8593  170.1685 H       1  UNL1        0.1442
     19 H         140.4633  139.4681  171.5408 H       1  UNL1        0.1442
     20 C         137.8618  141.0489  164.1489 C.3     1  UNL1        0.0980
     21 N         137.5296  142.4344  164.6179 N.3     1  UNL1       -0.2892
     22 H         137.8512  142.5036  165.5834 H       1  UNL1        0.1237
     23 C         138.0820  143.6248  163.8912 C.3     1  UNL1        0.1307
     24 C         138.5275  144.5040  162.7605 C.3     1  UNL1        0.0245
     25 C         137.9662  143.1425  162.4756 C.3     1  UNL1        0.0245
     26 C         138.3896  144.5205  165.0545 C.3     1  UNL1        0.4088
     27 F         138.6972  145.4161  166.2177 F       1  UNL1       -0.1686
     28 F         136.9305  144.5759  165.3976 F       1  UNL1       -0.1686
     29 F         139.8488  144.4650  164.7113 F       1  UNL1       -0.1686
@<TRIPOS>BOND
     1    10     9    1
     2    10    11    1
     3    11    12    1
     4    12    13    1
     5    12     1    1
     6     1     2   ar
     7     2     3   ar
     8     3    20    1
     9    20    21    1
    10    21    23    1
    11    23    26    1
    12    26    27    1
    13    26    28    1
    14    26    29    1
    15    23    24    1
    16    24    25    1
    17     3     4   ar
    18     4     5    1
    19     4     6   ar
    20     6     7   ar
    21     7     8    1
    22    12    14    1
    23    14    15    2
    24    15    16    1
    25    15    17    1
    26    17    10    1
    27     7     1   ar
    28    25    23    1
    29    21    22    1
    30    16    18    1
    31    16    19    1
@<TRIPOS>MOLECULE
*****
 29 31 0 0 0
SMALL
GASTEIGER

@<TRIPOS>ATOM
      1 C         140.3482  141.0043  165.7172 C.ar    1  UNL1        0.0252
      2 C         140.2750  140.9688  167.2150 C.ar    1  UNL1       -0.0009
      3 C         139.2594  140.0999  167.8958 C.ar    1  UNL1        0.0210
      4 C         138.3171  139.2665  167.0789 C.ar    1  UNL1        0.1397
      5 F         137.3014  138.3975  167.7597 F       1  UNL1       -0.2044
      6 C         138.3902  139.3020  165.5812 C.ar    1  UNL1        0.0587
      7 C         139.4058  140.1709  164.9003 C.ar    1  UNL1        0.1401
      8 F         139.4791  140.2065  163.4024 F       1  UNL1       -0.2044
      9 C         144.0919  144.1257  163.2381 C.3     1  UNL1        0.0122
     10 C         142.7961  143.6917  163.8567 C.3     1  UNL1        0.0568
     11 C         142.6596  142.3074  164.4179 C.3     1  UNL1        0.0380
     12 C         141.3638  141.8733  165.0364 C.3     1  UNL1        0.1080
     13 C         142.1703  140.6213  165.2156 C.3     1  UNL1        0.0291
     14 N         140.2046  142.8235  165.0937 N.2     1  UNL1       -0.2509
     15 C         140.3412  144.2078  164.5325 C.2     1  UNL1        0.1481
     16 N         139.1819  145.1581  164.5898 N.pl3   1  UNL1       -0.3380
     17 S         141.6369  144.6419  163.9139 S.3     1  UNL1       -0.0816
     18 H         138.3315  144.8732  164.9957 H       1  UNL1        0.1442
     19 H         139.2716  146.0666  164.2214 H       1  UNL1        0.1442
     20 C         139.1862  140.0643  169.3937 C.3     1  UNL1        0.0980
     21 N         139.2488  141.3413  170.1781 N.3     1  UNL1       -0.2892
     22 H         138.7254  141.1838  171.0393 H       1  UNL1        0.1237
     23 C         140.5774  141.9121  170.5770 C.3     1  UNL1        0.1307
     24 C         141.9826  141.9820  171.0970 C.3     1  UNL1        0.0245
     25 C         141.2596  140.6682  171.0641 C.3     1  UNL1        0.0245
     26 C         140.3566  143.3542  170.2285 C.3     1  UNL1        0.4088
     27 F         140.1358  144.7963  169.8799 F       1  UNL1       -0.1686
     28 F         139.1627  143.3908  171.1357 F       1  UNL1       -0.1686
     29 F         141.5506  143.3178  169.3212 F       1  UNL1       -0.1686
@<TRIPOS>BOND
     1    10     9    1
     2    10    11    1
     3    11    12    1
     4    12    13    1
     5    12     1    1
     6     1     2   ar
     7     2     3   ar
     8     3    20    1
     9    20    21    1
    10    21    23    1
    11    23    26    1
    12    26    27    1
    13    26    28    1
    14    26    29    1
    15    23    24    1
    16    24    25    1
    17     3     4   ar
    18     4     5    1
    19     4     6   ar
    20     6     7   ar
    21     7     8    1
    22    12    14    1
    23    14    15    2
    24    15    16    1
    25    15    17    1
    26    17    10    1
    27     7     1   ar
    28    25    23    1
    29    21    22    1
    30    16    18    1
    31    16    19    1
@<TRIPOS>MOLECULE
*****
 29 31 0 0 0
SMALL
GASTEIGER

@<TRIPOS>ATOM
      1 C         142.1532  140.9176  166.7133 C.ar    1  UNL1        0.0252
      2 C         141.6731  139.5967  166.1891 C.ar    1  UNL1       -0.0009
      3 C         142.3661  138.9557  165.0235 C.ar    1  UNL1        0.0210
      4 C         143.5393  139.6355  164.3821 C.ar    1  UNL1        0.1397
      5 F         144.2325  138.9944  163.2164 F       1  UNL1       -0.2044
      6 C         144.0194  140.9563  164.9062 C.ar    1  UNL1        0.0587
      7 C         143.3264  141.5974  166.0718 C.ar    1  UNL1        0.1401
      8 F         143.8065  142.9184  166.5960 F       1  UNL1       -0.2044
      9 C         139.5882  143.2840  170.9234 C.3     1  UNL1        0.0122
     10 C         140.5550  142.4369  170.1503 C.3     1  UNL1        0.0568
     11 C         140.4932  142.4057  168.6520 C.3     1  UNL1        0.0380
     12 C         141.4600  141.5586  167.8789 C.3     1  UNL1        0.1080
     13 C         140.6721  142.1520  166.7488 C.3     1  UNL1        0.0291
     14 N         142.4887  140.7427  168.6042 N.2     1  UNL1       -0.2509
     15 C         142.5505  140.7739  170.1025 C.2     1  UNL1        0.1481
     16 N         143.5792  139.9579  170.8279 N.pl3   1  UNL1       -0.3380
     17 S         141.5837  141.6210  170.8756 S.3     1  UNL1       -0.0816
     18 H         144.2138  139.4019  170.3205 H       1  UNL1        0.1442
     19 H         143.6198  139.9784  171.8114 H       1  UNL1        0.1442
     20 C         141.8860  137.6347  164.4993 C.3     1  UNL1        0.0980
     21 N         140.4649  137.2104  164.7240 N.3     1  UNL1       -0.2892
     22 H         140.2832  137.3071  165.7230 H       1  UNL1        0.1237
     23 C         139.3499  137.9161  164.0108 C.3     1  UNL1        0.1307
     24 C         138.5201  138.4681  162.8897 C.3     1  UNL1        0.0245
     25 C         139.7841  137.7186  162.5887 C.3     1  UNL1        0.0245
     26 C         138.5284  138.3588  165.1852 C.3     1  UNL1        0.4088
     27 F         137.7070  138.8015  166.3596 F       1  UNL1       -0.1686
     28 F         138.4485  136.9397  165.6643 F       1  UNL1       -0.1686
     29 F         138.6083  139.7781  164.7062 F       1  UNL1       -0.1686
@<TRIPOS>BOND
     1    10     9    1
     2    10    11    1
     3    11    12    1
     4    12    13    1
     5    12     1    1
     6     1     2   ar
     7     2     3   ar
     8     3    20    1
     9    20    21    1
    10    21    23    1
    11    23    26    1
    12    26    27    1
    13    26    28    1
    14    26    29    1
    15    23    24    1
    16    24    25    1
    17     3     4   ar
    18     4     5    1
    19     4     6   ar
    20     6     7   ar
    21     7     8    1
    22    12    14    1
    23    14    15    2
    24    15    16    1
    25    15    17    1
    26    17    10    1
    27     7     1   ar
    28    25    23    1
    29    21    22    1
    30    16    18    1
    31    16    19    1
@<TRIPOS>MOLECULE
*****
 29 31 0 0 0
SMALL
GASTEIGER

@<TRIPOS>ATOM
      1 C         138.9591  139.6992  165.2181 C.ar    1  UNL1        0.0252
      2 C         138.5283  140.9358  164.4864 C.ar    1  UNL1       -0.0009
      3 C         138.1204  140.8508  163.0454 C.ar    1  UNL1        0.0210
      4 C         138.1432  139.5293  162.3362 C.ar    1  UNL1        0.1397
      5 F         137.7353  139.4443  160.8951 F       1  UNL1       -0.2044
      6 C         138.5739  138.2928  163.0678 C.ar    1  UNL1        0.0587
      7 C         138.9819  138.3777  164.5088 C.ar    1  UNL1        0.1401
      8 F         139.4126  137.1411  165.2406 F       1  UNL1       -0.2044
      9 C         140.3901  139.9881  170.4881 C.3     1  UNL1        0.0122
     10 C         140.4684  140.0824  168.9931 C.3     1  UNL1        0.0568
     11 C         139.2886  139.6900  168.1541 C.3     1  UNL1        0.0380
     12 C         139.3669  139.7842  166.6591 C.3     1  UNL1        0.1080
     13 C         137.9672  139.2681  166.8146 C.3     1  UNL1        0.0291
     14 N         140.6251  140.2708  166.0031 N.2     1  UNL1       -0.2509
     15 C         141.8049  140.6632  166.8422 C.2     1  UNL1        0.1481
     16 N         143.0631  141.1499  166.1863 N.pl3   1  UNL1       -0.3380
     17 S         141.7265  140.5690  168.3372 S.3     1  UNL1       -0.0816
     18 H         143.1145  141.2117  165.2051 H       1  UNL1        0.1442
     19 H         143.8374  141.4074  166.7370 H       1  UNL1        0.1442
     20 C         137.6897  142.0874  162.3137 C.3     1  UNL1        0.0980
     21 N         137.6170  143.3996  163.0367 N.3     1  UNL1       -0.2892
     22 H         137.3265  143.1935  163.9925 H       1  UNL1        0.1237
     23 C         138.8338  144.2716  163.1324 C.3     1  UNL1        0.1307
     24 C         140.0886  144.9892  162.7321 C.3     1  UNL1        0.0245
     25 C         139.3661  144.1300  161.7372 C.3     1  UNL1        0.0245
     26 C         138.7241  144.7160  164.5609 C.3     1  UNL1        0.4088
     27 F         138.6143  145.1604  165.9893 F       1  UNL1       -0.1686
     28 F         140.1770  145.0886  164.5566 F       1  UNL1       -0.1686
     29 F         137.2711  144.3434  164.5652 F       1  UNL1       -0.1686
@<TRIPOS>BOND
     1    10     9    1
     2    10    11    1
     3    11    12    1
     4    12    13    1
     5    12     1    1
     6     1     2   ar
     7     2     3   ar
     8     3    20    1
     9    20    21    1
    10    21    23    1
    11    23    26    1
    12    26    27    1
    13    26    28    1
    14    26    29    1
    15    23    24    1
    16    24    25    1
    17     3     4   ar
    18     4     5    1
    19     4     6   ar
    20     6     7   ar
    21     7     8    1
    22    12    14    1
    23    14    15    2
    24    15    16    1
    25    15    17    1
    26    17    10    1
    27     7     1   ar
    28    25    23    1
    29    21    22    1
    30    16    18    1
    31    16    19    1
@<TRIPOS>MOLECULE
*****
 29 31 0 0 0
SMALL
GASTEIGER

@<TRIPOS>ATOM
      1 C         142.4360  140.8327  166.4718 C.ar    1  UNL1        0.0252
      2 C         142.8964  142.2205  166.1369 C.ar    1  UNL1       -0.0009
      3 C         143.9940  142.4254  165.1353 C.ar    1  UNL1        0.0210
      4 C         144.6313  141.2425  164.4686 C.ar    1  UNL1        0.1397
      5 F         145.7291  141.4474  163.4670 F       1  UNL1       -0.2044
      6 C         144.1711  139.8548  164.8034 C.ar    1  UNL1        0.0587
      7 C         143.0734  139.6498  165.8050 C.ar    1  UNL1        0.1401
      8 F         142.6131  138.2620  166.1399 F       1  UNL1       -0.2044
      9 C         138.3923  140.0923  170.0779 C.3     1  UNL1        0.0122
     10 C         139.7731  140.2335  169.5090 C.3     1  UNL1        0.0568
     11 C         139.9576  140.4867  168.0422 C.3     1  UNL1        0.0380
     12 C         141.3384  140.6279  167.4733 C.3     1  UNL1        0.1080
     13 C         140.5234  140.8110  166.2274 C.3     1  UNL1        0.0291
     14 N         142.5346  140.5159  168.3714 N.2     1  UNL1       -0.2509
     15 C         142.3500  140.2628  169.8383 C.2     1  UNL1        0.1481
     16 N         143.5462  140.1508  170.7364 N.pl3   1  UNL1       -0.3380
     17 S         140.9692  140.1216  170.4071 S.3     1  UNL1       -0.0816
     18 H         144.4525  140.2435  170.3631 H       1  UNL1        0.1442
     19 H         143.4251  139.9846  171.6992 H       1  UNL1        0.1442
     20 C         144.4543  143.8133  164.8004 C.3     1  UNL1        0.0980
     21 N         143.9940  144.4708  163.5332 N.3     1  UNL1       -0.2892
     22 H         144.7824  144.4478  162.8864 H       1  UNL1        0.1237
     23 C         142.8098  143.9244  162.7921 C.3     1  UNL1        0.1307
     24 C         142.0115  143.1939  161.7535 C.3     1  UNL1        0.0245
     25 C         143.5095  143.2043  161.6778 C.3     1  UNL1        0.0245
     26 C         141.6988  144.4548  163.6491 C.3     1  UNL1        0.4088
     27 F         140.5879  144.9852  164.5061 F       1  UNL1       -0.1686
     28 F         141.0388  143.1080  163.6272 F       1  UNL1       -0.1686
     29 F         142.3588  145.8017  163.6711 F       1  UNL1       -0.1686
@<TRIPOS>BOND
     1    10     9    1
     2    10    11    1
     3    11    12    1
     4    12    13    1
     5    12     1    1
     6     1     2   ar
     7     2     3   ar
     8     3    20    1
     9    20    21    1
    10    21    23    1
    11    23    26    1
    12    26    27    1
    13    26    28    1
    14    26    29    1
    15    23    24    1
    16    24    25    1
    17     3     4   ar
    18     4     5    1
    19     4     6   ar
    20     6     7   ar
    21     7     8    1
    22    12    14    1
    23    14    15    2
    24    15    16    1
    25    15    17    1
    26    17    10    1
    27     7     1   ar
    28    25    23    1
    29    21    22    1
    30    16    18    1
    31    16    19    1
@<TRIPOS>MOLECULE
*****
 29 31 0 0 0
SMALL
GASTEIGER

@<TRIPOS>ATOM
      1 C         140.5810  139.9967  166.9725 C.ar    1  UNL1        0.0252
      2 C         141.3420  139.5781  165.7495 C.ar    1  UNL1       -0.0009
      3 C         140.6954  138.6844  164.7331 C.ar    1  UNL1        0.0210
      4 C         139.2878  138.2092  164.9397 C.ar    1  UNL1        0.1397
      5 F         138.6410  137.3154  163.9232 F       1  UNL1       -0.2044
      6 C         138.5267  138.6277  166.1626 C.ar    1  UNL1        0.0587
      7 C         139.1733  139.5215  167.1790 C.ar    1  UNL1        0.1401
      8 F         138.4123  139.9401  168.4020 F       1  UNL1       -0.2044
      9 C         142.9162  143.3047  170.6478 C.3     1  UNL1        0.0122
     10 C         142.4926  142.0532  169.9377 C.3     1  UNL1        0.0568
     11 C         141.6514  142.1419  168.6989 C.3     1  UNL1        0.0380
     12 C         141.2277  140.8904  167.9888 C.3     1  UNL1        0.1080
     13 C         140.5856  141.9203  167.1073 C.3     1  UNL1        0.0291
     14 N         141.6452  139.5502  168.5174 N.2     1  UNL1       -0.2509
     15 C         142.4864  139.4615  169.7561 C.2     1  UNL1        0.1481
     16 N         142.9040  138.1212  170.2847 N.pl3   1  UNL1       -0.3380
     17 S         142.9101  140.7130  170.4662 S.3     1  UNL1       -0.0816
     18 H         142.6259  137.2998  169.8187 H       1  UNL1        0.1442
     19 H         143.4561  138.0630  171.0978 H       1  UNL1        0.1442
     20 C         141.4564  138.2658  163.5101 C.3     1  UNL1        0.0980
     21 N         142.9556  138.3165  163.5058 N.3     1  UNL1       -0.2892
     22 H         143.2806  137.3925  163.2211 H       1  UNL1        0.1237
     23 C         143.6698  139.3123  162.6407 C.3     1  UNL1        0.1307
     24 C         144.1846  139.9963  161.4091 C.3     1  UNL1        0.0245
     25 C         143.3437  138.7605  161.2846 C.3     1  UNL1        0.0245
     26 C         144.2440  140.2100  163.6965 C.3     1  UNL1        0.4088
     27 F         144.8180  141.1077  164.7522 F       1  UNL1       -0.1686
     28 F         145.2241  139.1392  164.0741 F       1  UNL1       -0.1686
     29 F         143.2638  141.2809  163.3189 F       1  UNL1       -0.1686
@<TRIPOS>BOND
     1    10     9    1
     2    10    11    1
     3    11    12    1
     4    12    13    1
     5    12     1    1
     6     1     2   ar
     7     2     3   ar
     8     3    20    1
     9    20    21    1
    10    21    23    1
    11    23    26    1
    12    26    27    1
    13    26    28    1
    14    26    29    1
    15    23    24    1
    16    24    25    1
    17     3     4   ar
    18     4     5    1
    19     4     6   ar
    20     6     7   ar
    21     7     8    1
    22    12    14    1
    23    14    15    2
    24    15    16    1
    25    15    17    1
    26    17    10    1
    27     7     1   ar
    28    25    23    1
    29    21    22    1
    30    16    18    1
    31    16    19    1
@<TRIPOS>MOLECULE
*****
 29 31 0 0 0
SMALL
GASTEIGER

@<TRIPOS>ATOM
      1 C         142.1556  141.9530  166.4822 C.ar    1  UNL1        0.0252
      2 C         143.3102  142.4063  165.6387 C.ar    1  UNL1       -0.0009
      3 C         143.1003  143.4422  164.5744 C.ar    1  UNL1        0.0210
      4 C         141.7358  144.0250  164.3537 C.ar    1  UNL1        0.1397
      5 F         141.5259  145.0611  163.2894 F       1  UNL1       -0.2044
      6 C         140.5813  143.5718  165.1972 C.ar    1  UNL1        0.0587
      7 C         140.7912  142.5357  166.2615 C.ar    1  UNL1        0.1401
      8 F         139.6366  142.0824  167.1051 F       1  UNL1       -0.2044
      9 C         142.9114  138.1313  170.3199 C.3     1  UNL1        0.0122
     10 C         142.7938  139.4758  169.6653 C.3     1  UNL1        0.0568
     11 C         142.4832  139.5725  168.2010 C.3     1  UNL1        0.0380
     12 C         142.3656  140.9170  167.5464 C.3     1  UNL1        0.1080
     13 C         142.0998  140.0289  166.3672 C.3     1  UNL1        0.0291
     14 N         142.5584  142.1648  168.3561 N.2     1  UNL1       -0.2509
     15 C         142.8690  142.0682  169.8204 C.2     1  UNL1        0.1481
     16 N         143.0618  143.3160  170.6302 N.pl3   1  UNL1       -0.3380
     17 S         142.9866  140.7237  170.4750 S.3     1  UNL1       -0.0816
     18 H         142.9846  144.1985  170.2006 H       1  UNL1        0.1442
     19 H         143.2657  143.2526  171.5913 H       1  UNL1        0.1442
     20 C         144.2548  143.8955  163.7309 C.3     1  UNL1        0.0980
     21 N         145.2361  142.8923  163.2012 N.3     1  UNL1       -0.2892
     22 H         145.7292  142.5087  164.0075 H       1  UNL1        0.1237
     23 C         144.7526  141.7244  162.3935 C.3     1  UNL1        0.1307
     24 C         144.1667  140.9448  161.2538 C.3     1  UNL1        0.0245
     25 C         144.2900  142.4366  161.1571 C.3     1  UNL1        0.0245
     26 C         145.0472  140.6067  163.3494 C.3     1  UNL1        0.4088
     27 F         145.3418  139.4889  164.3053 F       1  UNL1       -0.1686
     28 F         146.2840  141.3225  163.8053 F       1  UNL1       -0.1686
     29 F         143.8104  139.8908  162.8936 F       1  UNL1       -0.1686
@<TRIPOS>BOND
     1    10     9    1
     2    10    11    1
     3    11    12    1
     4    12    13    1
     5    12     1    1
     6     1     2   ar
     7     2     3   ar
     8     3    20    1
     9    20    21    1
    10    21    23    1
    11    23    26    1
    12    26    27    1
    13    26    28    1
    14    26    29    1
    15    23    24    1
    16    24    25    1
    17     3     4   ar
    18     4     5    1
    19     4     6   ar
    20     6     7   ar
    21     7     8    1
    22    12    14    1
    23    14    15    2
    24    15    16    1
    25    15    17    1
    26    17    10    1
    27     7     1   ar
    28    25    23    1
    29    21    22    1
    30    16    18    1
    31    16    19    1
@<TRIPOS>MOLECULE
*****
 29 31 0 0 0
SMALL
GASTEIGER

@<TRIPOS>ATOM
      1 C         139.7307  143.1378  164.4457 C.ar    1  UNL1        0.0252
      2 C         140.9793  143.3268  163.6362 C.ar    1  UNL1       -0.0009
      3 C         140.9679  144.2318  162.4401 C.ar    1  UNL1        0.0210
      4 C         139.7078  144.9478  162.0533 C.ar    1  UNL1        0.1397
      5 F         139.6963  145.8529  160.8571 F       1  UNL1       -0.2044
      6 C         138.4592  144.7588  162.8627 C.ar    1  UNL1        0.0587
      7 C         138.4706  143.8537  164.0589 C.ar    1  UNL1        0.1401
      8 F         137.2219  143.6647  164.8684 F       1  UNL1       -0.2044
      9 C         139.7916  139.8859  168.8418 C.3     1  UNL1        0.0122
     10 C         139.6246  140.3458  167.4238 C.3     1  UNL1        0.0568
     11 C         139.9092  141.7728  167.0598 C.3     1  UNL1        0.0380
     12 C         139.7422  142.2328  165.6418 C.3     1  UNL1        0.1080
     13 C         140.1898  143.5141  166.2803 C.3     1  UNL1        0.0291
     14 N         139.2906  141.2657  164.5879 N.2     1  UNL1       -0.2509
     15 C         139.0060  139.8387  164.9520 C.2     1  UNL1        0.1481
     16 N         138.5544  138.8715  163.8980 N.pl3   1  UNL1       -0.3380
     17 S         139.1730  139.3787  166.3699 S.3     1  UNL1       -0.0816
     18 H         138.4448  139.1733  162.9674 H       1  UNL1        0.1442
     19 H         138.3676  137.9349  164.1370 H       1  UNL1        0.1442
     20 C         142.2166  144.4209  161.6306 C.3     1  UNL1        0.0980
     21 N         143.5270  144.6635  162.3190 N.3     1  UNL1       -0.2892
     22 H         143.3203  145.1872  163.1696 H       1  UNL1        0.1237
     23 C         144.3880  143.5035  162.7231 C.3     1  UNL1        0.1307
     24 C         145.2055  142.2504  162.6165 C.3     1  UNL1        0.0245
     25 C         144.5619  142.8324  161.3930 C.3     1  UNL1        0.0245
     26 C         144.5131  143.7718  164.1936 C.3     1  UNL1        0.4088
     27 F         144.6382  144.0401  165.6641 F       1  UNL1       -0.1686
     28 F         144.0279  145.1748  163.9790 F       1  UNL1       -0.1686
     29 F         144.9983  142.3688  164.4083 F       1  UNL1       -0.1686
@<TRIPOS>BOND
     1    10     9    1
     2    10    11    1
     3    11    12    1
     4    12    13    1
     5    12     1    1
     6     1     2   ar
     7     2     3   ar
     8     3    20    1
     9    20    21    1
    10    21    23    1
    11    23    26    1
    12    26    27    1
    13    26    28    1
    14    26    29    1
    15    23    24    1
    16    24    25    1
    17     3     4   ar
    18     4     5    1
    19     4     6   ar
    20     6     7   ar
    21     7     8    1
    22    12    14    1
    23    14    15    2
    24    15    16    1
    25    15    17    1
    26    17    10    1
    27     7     1   ar
    28    25    23    1
    29    21    22    1
    30    16    18    1
    31    16    19    1
@<TRIPOS>MOLECULE
*****
 29 31 0 0 0
SMALL
GASTEIGER

@<TRIPOS>ATOM
      1 C         139.2859  142.3068  164.1147 C.ar    1  UNL1        0.0252
      2 C         140.5142  142.2077  163.2594 C.ar    1  UNL1       -0.0009
      3 C         140.9745  143.3954  162.4674 C.ar    1  UNL1        0.0210
      4 C         140.2066  144.6824  162.5307 C.ar    1  UNL1        0.1397
      5 F         140.6669  145.8702  161.7386 F       1  UNL1       -0.2044
      6 C         138.9783  144.7816  163.3859 C.ar    1  UNL1        0.0587
      7 C         138.5180  143.5938  164.1780 C.ar    1  UNL1        0.1401
      8 F         137.2897  143.6930  165.0333 F       1  UNL1       -0.2044
      9 C         137.5706  137.9601  166.9551 C.3     1  UNL1        0.0122
     10 C         138.3123  139.2137  166.5966 C.3     1  UNL1        0.0568
     11 C         138.0840  139.8654  165.2651 C.3     1  UNL1        0.0380
     12 C         138.8256  141.1190  164.9067 C.3     1  UNL1        0.1080
     13 C         138.0155  140.9297  163.6585 C.3     1  UNL1        0.0291
     14 N         139.7956  141.7208  165.8798 N.2     1  UNL1       -0.2509
     15 C         140.0239  141.0690  167.2113 C.2     1  UNL1        0.1481
     16 N         140.9940  141.6708  168.1844 N.pl3   1  UNL1       -0.3380
     17 S         139.2823  139.8155  167.5697 S.3     1  UNL1       -0.0816
     18 H         141.4808  142.4936  167.9492 H       1  UNL1        0.1442
     19 H         141.1438  141.2430  169.0584 H       1  UNL1        0.1442
     20 C         142.2028  143.2962  161.6121 C.3     1  UNL1        0.0980
     21 N         143.5413  143.0598  162.2464 N.3     1  UNL1       -0.2892
     22 H         144.2409  143.4375  161.6074 H       1  UNL1        0.1237
     23 C         143.8402  143.6294  163.6015 C.3     1  UNL1        0.1307
     24 C         144.0943  144.6390  164.6813 C.3     1  UNL1        0.0245
     25 C         143.8152  145.0942  163.2796 C.3     1  UNL1        0.0245
     26 C         143.9690  142.3624  164.3941 C.3     1  UNL1        0.4088
     27 F         144.0978  141.0954  165.1866 F       1  UNL1       -0.1686
     28 F         142.9616  142.8763  165.3794 F       1  UNL1       -0.1686
     29 F         144.9765  141.8484  163.4087 F       1  UNL1       -0.1686
@<TRIPOS>BOND
     1    10     9    1
     2    10    11    1
     3    11    12    1
     4    12    13    1
     5    12     1    1
     6     1     2   ar
     7     2     3   ar
     8     3    20    1
     9    20    21    1
    10    21    23    1
    11    23    26    1
    12    26    27    1
    13    26    28    1
    14    26    29    1
    15    23    24    1
    16    24    25    1
    17     3     4   ar
    18     4     5    1
    19     4     6   ar
    20     6     7   ar
    21     7     8    1
    22    12    14    1
    23    14    15    2
    24    15    16    1
    25    15    17    1
    26    17    10    1
    27     7     1   ar
    28    25    23    1
    29    21    22    1
    30    16    18    1
    31    16    19    1
