@<TRIPOS>MOLECULE
*****
 32 36 0 0 0
SMALL
GASTEIGER

@<TRIPOS>ATOM
      1 C         137.6358  138.9901  161.4342 C.3     1  UNL1        0.0759
      2 N         138.1078  139.2188  162.8395 N.3     1  UNL1       -0.2725
      3 C         138.6805  138.0817  163.6327 C.3     1  UNL1        0.0725
      4 C         139.1525  138.3103  165.0380 C.3     1  UNL1        0.0234
      5 C         139.0518  139.6760  165.6502 C.3     1  UNL1        0.0464
      6 C         138.4791  140.8130  164.8570 C.3     1  UNL1        0.0234
      7 C         138.0071  140.5844  163.4517 C.3     1  UNL1        0.0725
      8 C         139.5238  139.9046  167.0555 C.ar    1  UNL1        0.1003
      9 N         138.8309  139.4452  168.3040 N.ar    1  UNL1       -0.0814
     10 O         139.6505  139.8895  169.4793 O.2     1  UNL1       -0.3536
     11 C         140.8499  140.6235  168.9570 C.ar    1  UNL1        0.1787
     12 C         142.0031  141.2846  169.6518 C.ar    1  UNL1        0.0698
     13 C         143.0781  141.9550  168.8488 C.ar    1  UNL1        0.1433
     14 F         144.2314  142.6161  169.5437 F       1  UNL1       -0.2041
     15 C         142.9999  141.9644  167.3508 C.ar    1  UNL1        0.0299
     16 C         141.8466  141.3033  166.6560 C.ar    1  UNL1        0.0067
     17 C         140.7716  140.6329  167.4590 C.ar    1  UNL1        0.0540
     18 C         138.3847  139.5949  160.2838 C.3     1  UNL1        0.0646
     19 C         139.6965  139.0094  159.8520 C.3     1  UNL1        0.2068
     20 O         140.5093  138.1977  160.8165 O.3     1  UNL1       -0.4754
     21 C         143.6836  144.4069  164.2979 C.3     1  UNL1        0.1152
     22 N         143.7686  142.9706  163.8736 N.am    1  UNL1       -0.2740
     23 C         144.9967  142.1678  164.1856 C.3     1  UNL1        0.0984
     24 C         145.0817  140.7316  163.7614 C.3     1  UNL1        0.0480
     25 C         143.9386  140.0981  163.0252 C.ar    1  UNL1       -0.0159
     26 C         144.0236  138.6619  162.6010 C.ar    1  UNL1       -0.0010
     27 C         142.8805  138.0284  161.8647 C.ar    1  UNL1        0.0366
     28 C         141.6524  138.8312  161.5527 C.ar    1  UNL1        0.1387
     29 C         141.5674  140.2674  161.9769 C.ar    1  UNL1        0.0411
     30 C         142.7105  140.9008  162.7132 C.ar    1  UNL1        0.0527
     31 C         142.6255  142.3371  163.1374 C.2     1  UNL1        0.2489
     32 O         141.3974  143.1399  162.8254 O.2     1  UNL1       -0.2699
@<TRIPOS>BOND
     1    21    22    1
     2    22    23    1
     3    23    24    1
     4    24    25    1
     5    25    26   ar
     6    26    27   ar
     7    27    28   ar
     8    28    20    1
     9    20    19    1
    10    19    18    1
    11    18     1    1
    12     1     2    1
    13     2     3    1
    14     3     4    1
    15     4     5    1
    16     5     8    1
    17     8     9   ar
    18     9    10   ar
    19    10    11   ar
    20    11    12   ar
    21    12    13   ar
    22    13    14    1
    23    13    15   ar
    24    15    16   ar
    25    16    17   ar
    26     5     6    1
    27     6     7    1
    28    28    29   ar
    29    29    30   ar
    30    30    31    1
    31    31    32    2
    32    31    22   am
    33    30    25   ar
    34     7     2    1
    35    17     8   ar
    36    17    11   ar
@<TRIPOS>MOLECULE
*****
 32 36 0 0 0
SMALL
GASTEIGER

@<TRIPOS>ATOM
      1 C         142.2052  144.5055  161.4066 C.3     1  UNL1        0.0759
      2 N         142.3220  143.5487  162.5559 N.3     1  UNL1       -0.2725
      3 C         142.1854  142.0735  162.3206 C.3     1  UNL1        0.0725
      4 C         142.3022  141.1167  163.4699 C.3     1  UNL1        0.0234
      5 C         142.5555  141.6350  164.8545 C.3     1  UNL1        0.0464
      6 C         142.6921  143.1101  165.0898 C.3     1  UNL1        0.0234
      7 C         142.5753  144.0670  163.9405 C.3     1  UNL1        0.0725
      8 C         142.6723  140.6783  166.0038 C.ar    1  UNL1        0.1003
      9 N         143.4133  139.3741  165.9935 N.ar    1  UNL1       -0.0814
     10 O         143.2676  138.7474  167.3486 O.2     1  UNL1       -0.3536
     11 C         142.4364  139.6644  168.1963 C.ar    1  UNL1        0.1787
     12 C         141.9671  139.5669  169.6177 C.ar    1  UNL1        0.0698
     13 C         141.1300  140.6626  170.2079 C.ar    1  UNL1        0.1433
     14 F         140.6606  140.5651  171.6292 F       1  UNL1       -0.2041
     15 C         140.7621  141.8560  169.3768 C.ar    1  UNL1        0.0299
     16 C         141.2314  141.9534  167.9554 C.ar    1  UNL1        0.0067
     17 C         142.0686  140.8576  167.3652 C.ar    1  UNL1        0.0540
     18 C         140.8626  144.7907  160.8017 C.3     1  UNL1        0.0646
     19 C         139.9860  145.8564  161.3901 C.3     1  UNL1        0.2068
     20 O         138.7715  145.4751  162.1835 O.3     1  UNL1       -0.4754
     21 C         138.3827  137.7119  162.7607 C.3     1  UNL1        0.1152
     22 N         138.5251  139.0573  163.4087 N.am    1  UNL1       -0.2740
     23 C         138.6803  139.1602  164.8971 C.3     1  UNL1        0.0984
     24 C         138.8227  140.5054  165.5451 C.3     1  UNL1        0.0480
     25 C         138.8099  141.7479  164.7047 C.ar    1  UNL1       -0.0159
     26 C         138.9523  143.0931  165.3527 C.ar    1  UNL1       -0.0010
     27 C         138.9395  144.3355  164.5123 C.ar    1  UNL1        0.0366
     28 C         138.7843  144.2326  163.0239 C.ar    1  UNL1        0.1387
     29 C         138.6419  142.8873  162.3759 C.ar    1  UNL1        0.0411
     30 C         138.6547  141.6450  163.2163 C.ar    1  UNL1        0.0527
     31 C         138.5123  140.2996  162.5683 C.2     1  UNL1        0.2489
     32 O         138.3570  140.1967  161.0799 O.2     1  UNL1       -0.2699
@<TRIPOS>BOND
     1    21    22    1
     2    22    23    1
     3    23    24    1
     4    24    25    1
     5    25    26   ar
     6    26    27   ar
     7    27    28   ar
     8    28    20    1
     9    20    19    1
    10    19    18    1
    11    18     1    1
    12     1     2    1
    13     2     3    1
    14     3     4    1
    15     4     5    1
    16     5     8    1
    17     8     9   ar
    18     9    10   ar
    19    10    11   ar
    20    11    12   ar
    21    12    13   ar
    22    13    14    1
    23    13    15   ar
    24    15    16   ar
    25    16    17   ar
    26     5     6    1
    27     6     7    1
    28    28    29   ar
    29    29    30   ar
    30    30    31    1
    31    31    32    2
    32    31    22   am
    33    30    25   ar
    34     7     2    1
    35    17     8   ar
    36    17    11   ar
@<TRIPOS>MOLECULE
*****
 32 36 0 0 0
SMALL
GASTEIGER

@<TRIPOS>ATOM
      1 C         139.6279  145.5767  161.6756 C.3     1  UNL1        0.0759
      2 N         139.5720  144.5293  162.7479 N.3     1  UNL1       -0.2725
      3 C         138.8808  143.2240  162.4859 C.3     1  UNL1        0.0725
      4 C         138.8249  142.1765  163.5582 C.3     1  UNL1        0.0234
      5 C         139.4602  142.4343  164.8923 C.3     1  UNL1        0.0464
      6 C         140.1514  143.7396  165.1543 C.3     1  UNL1        0.0234
      7 C         140.2073  144.7871  164.0820 C.3     1  UNL1        0.0725
      8 C         139.4043  141.3869  165.9646 C.ar    1  UNL1        0.1003
      9 N         138.7086  140.0615  165.8670 N.ar    1  UNL1       -0.0814
     10 O         138.9087  139.3364  167.1649 O.2     1  UNL1       -0.3536
     11 C         139.7280  140.2136  168.0645 C.ar    1  UNL1        0.1787
     12 C         140.2347  140.0222  169.4632 C.ar    1  UNL1        0.0698
     13 C         141.0477  141.0980  170.1202 C.ar    1  UNL1        0.1433
     14 F         141.5544  140.9065  171.5190 F       1  UNL1       -0.2041
     15 C         141.3540  142.3653  169.3784 C.ar    1  UNL1        0.0299
     16 C         140.8473  142.5567  167.9797 C.ar    1  UNL1        0.0067
     17 C         140.0343  141.4809  167.3227 C.ar    1  UNL1        0.0540
     18 C         140.7063  145.5271  160.6342 C.3     1  UNL1        0.0646
     19 C         141.6620  144.3714  160.5986 C.3     1  UNL1        0.2068
     20 O         142.8709  144.3703  161.4866 O.3     1  UNL1       -0.4754
     21 C         141.2231  137.3924  164.5435 C.3     1  UNL1        0.1152
     22 N         141.8693  138.7413  164.6584 N.am    1  UNL1       -0.2740
     23 C         142.6123  139.1129  165.9073 C.3     1  UNL1        0.0984
     24 C         143.2585  140.4617  166.0223 C.3     1  UNL1        0.0480
     25 C         143.1616  141.4389  164.8883 C.ar    1  UNL1       -0.0159
     26 C         143.8077  142.7877  165.0033 C.ar    1  UNL1       -0.0010
     27 C         143.7108  143.7648  163.8694 C.ar    1  UNL1        0.0366
     28 C         142.9678  143.3931  162.6205 C.ar    1  UNL1        0.1387
     29 C         142.3216  142.0444  162.5055 C.ar    1  UNL1        0.0411
     30 C         142.4185  141.0673  163.6394 C.ar    1  UNL1        0.0527
     31 C         141.7724  139.7184  163.5245 C.2     1  UNL1        0.2489
     32 O         141.0293  139.3468  162.2756 O.2     1  UNL1       -0.2699
@<TRIPOS>BOND
     1    21    22    1
     2    22    23    1
     3    23    24    1
     4    24    25    1
     5    25    26   ar
     6    26    27   ar
     7    27    28   ar
     8    28    20    1
     9    20    19    1
    10    19    18    1
    11    18     1    1
    12     1     2    1
    13     2     3    1
    14     3     4    1
    15     4     5    1
    16     5     8    1
    17     8     9   ar
    18     9    10   ar
    19    10    11   ar
    20    11    12   ar
    21    12    13   ar
    22    13    14    1
    23    13    15   ar
    24    15    16   ar
    25    16    17   ar
    26     5     6    1
    27     6     7    1
    28    28    29   ar
    29    29    30   ar
    30    30    31    1
    31    31    32    2
    32    31    22   am
    33    30    25   ar
    34     7     2    1
    35    17     8   ar
    36    17    11   ar
@<TRIPOS>MOLECULE
*****
 32 36 0 0 0
SMALL
GASTEIGER

@<TRIPOS>ATOM
      1 C         137.6095  140.0857  161.0648 C.3     1  UNL1        0.0759
      2 N         138.1133  140.1031  162.4776 N.3     1  UNL1       -0.2725
      3 C         137.5204  141.0552  163.4736 C.3     1  UNL1        0.0725
      4 C         138.0242  141.0726  164.8864 C.3     1  UNL1        0.0234
      5 C         139.1209  140.1379  165.3031 C.3     1  UNL1        0.0464
      6 C         139.7138  139.1858  164.3071 C.3     1  UNL1        0.0234
      7 C         139.2100  139.1684  162.8943 C.3     1  UNL1        0.0725
      8 C         139.6247  140.1552  166.7158 C.ar    1  UNL1        0.1003
      9 N         138.9787  139.4824  167.8906 N.ar    1  UNL1       -0.0814
     10 O         139.8178  139.7598  169.1028 O.2     1  UNL1       -0.3536
     11 C         140.9823  140.6041  168.6771 C.ar    1  UNL1        0.1787
     12 C         142.1359  141.1820  169.4421 C.ar    1  UNL1        0.0698
     13 C         143.1701  142.0041  168.7320 C.ar    1  UNL1        0.1433
     14 F         144.3237  142.5820  169.4971 F       1  UNL1       -0.2041
     15 C         143.0508  142.2486  167.2568 C.ar    1  UNL1        0.0299
     16 C         141.8972  141.6707  166.4918 C.ar    1  UNL1        0.0067
     17 C         140.8630  140.8485  167.2019 C.ar    1  UNL1        0.0540
     18 C         138.4614  140.6329  159.9581 C.3     1  UNL1        0.0646
     19 C         138.4931  142.1095  159.6960 C.3     1  UNL1        0.2068
     20 O         138.2978  143.0762  160.8262 O.3     1  UNL1       -0.4754
     21 C         145.2736  141.7780  164.0516 C.3     1  UNL1        0.1152
     22 N         144.1321  142.7046  163.7541 N.am    1  UNL1       -0.2740
     23 C         144.1744  144.1251  164.2342 C.3     1  UNL1        0.0984
     24 C         143.0330  145.0517  163.9367 C.3     1  UNL1        0.0480
     25 C         141.8492  144.5578  163.1591 C.ar    1  UNL1       -0.0159
     26 C         140.7077  145.4844  162.8616 C.ar    1  UNL1       -0.0010
     27 C         139.5240  144.9905  162.0840 C.ar    1  UNL1        0.0366
     28 C         139.4816  143.5701  161.6038 C.ar    1  UNL1        0.1387
     29 C         140.6230  142.6435  161.9013 C.ar    1  UNL1        0.0411
     30 C         141.8068  143.1374  162.6789 C.ar    1  UNL1        0.0527
     31 C         142.9483  142.2108  162.9765 C.2     1  UNL1        0.2489
     32 O         142.9060  140.7903  162.4963 O.2     1  UNL1       -0.2699
@<TRIPOS>BOND
     1    21    22    1
     2    22    23    1
     3    23    24    1
     4    24    25    1
     5    25    26   ar
     6    26    27   ar
     7    27    28   ar
     8    28    20    1
     9    20    19    1
    10    19    18    1
    11    18     1    1
    12     1     2    1
    13     2     3    1
    14     3     4    1
    15     4     5    1
    16     5     8    1
    17     8     9   ar
    18     9    10   ar
    19    10    11   ar
    20    11    12   ar
    21    12    13   ar
    22    13    14    1
    23    13    15   ar
    24    15    16   ar
    25    16    17   ar
    26     5     6    1
    27     6     7    1
    28    28    29   ar
    29    29    30   ar
    30    30    31    1
    31    31    32    2
    32    31    22   am
    33    30    25   ar
    34     7     2    1
    35    17     8   ar
    36    17    11   ar
@<TRIPOS>MOLECULE
*****
 32 36 0 0 0
SMALL
GASTEIGER

@<TRIPOS>ATOM
      1 C         142.1385  140.2938  169.9573 C.3     1  UNL1        0.0759
      2 N         142.5535  140.4651  168.5261 N.3     1  UNL1       -0.2725
      3 C         142.6435  139.2706  167.6232 C.3     1  UNL1        0.0725
      4 C         143.0584  139.4419  166.1919 C.3     1  UNL1        0.0234
      5 C         143.3834  140.8076  165.6636 C.3     1  UNL1        0.0464
      6 C         143.2934  142.0020  166.5664 C.3     1  UNL1        0.0234
      7 C         142.8784  141.8308  167.9977 C.3     1  UNL1        0.0725
      8 C         143.7984  140.9789  164.2323 C.ar    1  UNL1        0.1003
      9 N         144.5565  142.1434  163.6675 N.ar    1  UNL1       -0.0814
     10 O         144.7548  141.9000  162.2006 O.2     1  UNL1       -0.3536
     11 C         144.1192  140.5848  161.8590 C.ar    1  UNL1        0.1787
     12 C         144.0023  139.8322  160.5668 C.ar    1  UNL1        0.0698
     13 C         143.2944  138.5103  160.5302 C.ar    1  UNL1        0.1433
     14 F         143.1775  137.7576  159.2380 F       1  UNL1       -0.2041
     15 C         142.7033  137.9410  161.7859 C.ar    1  UNL1        0.0299
     16 C         142.8202  138.6937  163.0781 C.ar    1  UNL1        0.0067
     17 C         143.5281  140.0156  163.1146 C.ar    1  UNL1        0.0540
     18 C         140.7302  139.8969  170.2874 C.3     1  UNL1        0.0646
     19 C         139.5925  140.4036  169.4513 C.3     1  UNL1        0.2068
     20 O         139.1049  139.6002  168.2823 O.3     1  UNL1       -0.4754
     21 C         139.2188  138.3146  160.5956 C.3     1  UNL1        0.1152
     22 N         139.4023  139.2416  161.7606 N.am    1  UNL1       -0.2740
     23 C         139.8073  140.6670  161.5282 C.3     1  UNL1        0.0984
     24 C         139.9909  141.5940  162.6930 C.3     1  UNL1        0.0480
     25 C         139.7694  141.0956  164.0904 C.ar    1  UNL1       -0.0159
     26 C         139.9529  142.0226  165.2553 C.ar    1  UNL1       -0.0010
     27 C         139.7314  141.5241  166.6525 C.ar    1  UNL1        0.0366
     28 C         139.3264  140.0986  166.8849 C.ar    1  UNL1        0.1387
     29 C         139.1429  139.1716  165.7201 C.ar    1  UNL1        0.0411
     30 C         139.3643  139.6701  164.3228 C.ar    1  UNL1        0.0527
     31 C         139.1808  138.7431  163.1578 C.2     1  UNL1        0.2489
     32 O         138.7758  137.3176  163.3902 O.2     1  UNL1       -0.2699
@<TRIPOS>BOND
     1    21    22    1
     2    22    23    1
     3    23    24    1
     4    24    25    1
     5    25    26   ar
     6    26    27   ar
     7    27    28   ar
     8    28    20    1
     9    20    19    1
    10    19    18    1
    11    18     1    1
    12     1     2    1
    13     2     3    1
    14     3     4    1
    15     4     5    1
    16     5     8    1
    17     8     9   ar
    18     9    10   ar
    19    10    11   ar
    20    11    12   ar
    21    12    13   ar
    22    13    14    1
    23    13    15   ar
    24    15    16   ar
    25    16    17   ar
    26     5     6    1
    27     6     7    1
    28    28    29   ar
    29    29    30   ar
    30    30    31    1
    31    31    32    2
    32    31    22   am
    33    30    25   ar
    34     7     2    1
    35    17     8   ar
    36    17    11   ar
@<TRIPOS>MOLECULE
*****
 32 36 0 0 0
SMALL
GASTEIGER

@<TRIPOS>ATOM
      1 C         141.3109  138.1804  160.9014 C.3     1  UNL1        0.0759
      2 N         140.7185  138.3554  162.2683 N.3     1  UNL1       -0.2725
      3 C         139.7948  139.5048  162.5438 C.3     1  UNL1        0.0725
      4 C         139.2023  139.6799  163.9106 C.3     1  UNL1        0.0234
      5 C         139.5335  138.7056  165.0020 C.3     1  UNL1        0.0464
      6 C         140.4571  137.5563  164.7266 C.3     1  UNL1        0.0234
      7 C         141.0496  137.3812  163.3597 C.3     1  UNL1        0.0725
      8 C         138.9410  138.8807  166.3688 C.ar    1  UNL1        0.1003
      9 N         137.7501  138.1495  166.9139 N.ar    1  UNL1       -0.0814
     10 O         137.5085  138.6347  168.3126 O.2     1  UNL1       -0.3536
     11 C         138.5502  139.6657  168.6320 C.ar    1  UNL1        0.1787
     12 C         138.8069  140.4856  169.8615 C.ar    1  UNL1        0.0698
     13 C         139.9490  141.4576  169.8898 C.ar    1  UNL1        0.1433
     14 F         140.2057  142.2776  171.1193 F       1  UNL1       -0.2041
     15 C         140.8344  141.6097  168.6885 C.ar    1  UNL1        0.0299
     16 C         140.5776  140.7898  167.4590 C.ar    1  UNL1        0.0067
     17 C         139.4355  139.8177  167.4308 C.ar    1  UNL1        0.0540
     18 C         142.7676  137.8553  160.7514 C.3     1  UNL1        0.0646
     19 C         143.7812  138.9600  160.7006 C.3     1  UNL1        0.2068
     20 O         144.2840  139.5756  161.9727 O.3     1  UNL1       -0.4754
     21 C         139.8600  145.9926  161.9262 C.3     1  UNL1        0.1152
     22 N         140.4928  144.8563  162.6736 N.am    1  UNL1       -0.2740
     23 C         140.2836  144.7228  164.1529 C.3     1  UNL1        0.0984
     24 C         140.9162  143.5866  164.9003 C.3     1  UNL1        0.0480
     25 C         141.7582  142.5838  164.1684 C.ar    1  UNL1       -0.0159
     26 C         142.3909  141.4476  164.9158 C.ar    1  UNL1       -0.0010
     27 C         143.2328  140.4449  164.1839 C.ar    1  UNL1        0.0366
     28 C         143.4420  140.5784  162.7046 C.ar    1  UNL1        0.1387
     29 C         142.8093  141.7146  161.9572 C.ar    1  UNL1        0.0411
     30 C         141.9674  142.7173  162.6891 C.ar    1  UNL1        0.0527
     31 C         141.3347  143.8536  161.9417 C.2     1  UNL1        0.2489
     32 O         141.5439  143.9871  160.4623 O.2     1  UNL1       -0.2699
@<TRIPOS>BOND
     1    21    22    1
     2    22    23    1
     3    23    24    1
     4    24    25    1
     5    25    26   ar
     6    26    27   ar
     7    27    28   ar
     8    28    20    1
     9    20    19    1
    10    19    18    1
    11    18     1    1
    12     1     2    1
    13     2     3    1
    14     3     4    1
    15     4     5    1
    16     5     8    1
    17     8     9   ar
    18     9    10   ar
    19    10    11   ar
    20    11    12   ar
    21    12    13   ar
    22    13    14    1
    23    13    15   ar
    24    15    16   ar
    25    16    17   ar
    26     5     6    1
    27     6     7    1
    28    28    29   ar
    29    29    30   ar
    30    30    31    1
    31    31    32    2
    32    31    22   am
    33    30    25   ar
    34     7     2    1
    35    17     8   ar
    36    17    11   ar
@<TRIPOS>MOLECULE
*****
 32 36 0 0 0
SMALL
GASTEIGER

@<TRIPOS>ATOM
      1 C         144.4215  140.1496  161.8712 C.3     1  UNL1        0.0759
      2 N         143.9664  140.1022  163.2997 N.3     1  UNL1       -0.2725
      3 C         144.3211  138.9266  164.1612 C.3     1  UNL1        0.0725
      4 C         143.8660  138.8792  165.5897 C.3     1  UNL1        0.0234
      5 C         143.0562  140.0074  166.1567 C.3     1  UNL1        0.0464
      6 C         142.7016  141.1830  165.2952 C.3     1  UNL1        0.0234
      7 C         143.1567  141.2304  163.8666 C.3     1  UNL1        0.0725
      8 C         142.6011  139.9600  167.5852 C.ar    1  UNL1        0.1003
      9 N         142.9249  138.8836  168.5785 N.ar    1  UNL1       -0.0814
     10 O         142.2661  139.2391  169.8784 O.2     1  UNL1       -0.3536
     11 C         141.5352  140.5352  169.6885 C.ar    1  UNL1        0.1787
     12 C         140.7079  141.3672  170.6230 C.ar    1  UNL1        0.0698
     13 C         140.0877  142.6447  170.1403 C.ar    1  UNL1        0.1433
     14 F         139.2604  143.4768  171.0748 F       1  UNL1       -0.2041
     15 C         140.2946  143.0903  168.7230 C.ar    1  UNL1        0.0299
     16 C         141.1219  142.2583  167.7885 C.ar    1  UNL1        0.0067
     17 C         141.7422  140.9807  168.2712 C.ar    1  UNL1        0.0540
     18 C         143.5723  139.5444  160.7931 C.3     1  UNL1        0.0646
     19 C         143.4183  138.0547  160.7070 C.3     1  UNL1        0.2068
     20 O         142.1082  137.4145  161.0587 O.3     1  UNL1       -0.4754
     21 C         137.6617  142.7982  164.5222 C.3     1  UNL1        0.1152
     22 N         138.3742  141.4788  164.5642 N.am    1  UNL1       -0.2740
     23 C         138.3169  140.6347  165.8028 C.3     1  UNL1        0.0984
     24 C         139.0293  139.3154  165.8449 C.3     1  UNL1        0.0480
     25 C         139.7991  138.8402  164.6483 C.ar    1  UNL1       -0.0159
     26 C         140.5115  137.5208  164.6904 C.ar    1  UNL1       -0.0010
     27 C         141.2812  137.0457  163.4939 C.ar    1  UNL1        0.0366
     28 C         141.3385  137.8898  162.2553 C.ar    1  UNL1        0.1387
     29 C         140.6260  139.2091  162.2132 C.ar    1  UNL1        0.0411
     30 C         139.8563  139.6843  163.4097 C.ar    1  UNL1        0.0527
     31 C         139.1439  141.0037  163.3677 C.2     1  UNL1        0.2489
     32 O         139.2011  141.8478  162.1291 O.2     1  UNL1       -0.2699
@<TRIPOS>BOND
     1    21    22    1
     2    22    23    1
     3    23    24    1
     4    24    25    1
     5    25    26   ar
     6    26    27   ar
     7    27    28   ar
     8    28    20    1
     9    20    19    1
    10    19    18    1
    11    18     1    1
    12     1     2    1
    13     2     3    1
    14     3     4    1
    15     4     5    1
    16     5     8    1
    17     8     9   ar
    18     9    10   ar
    19    10    11   ar
    20    11    12   ar
    21    12    13   ar
    22    13    14    1
    23    13    15   ar
    24    15    16   ar
    25    16    17   ar
    26     5     6    1
    27     6     7    1
    28    28    29   ar
    29    29    30   ar
    30    30    31    1
    31    31    32    2
    32    31    22   am
    33    30    25   ar
    34     7     2    1
    35    17     8   ar
    36    17    11   ar
@<TRIPOS>MOLECULE
*****
 32 36 0 0 0
SMALL
GASTEIGER

@<TRIPOS>ATOM
      1 C         144.4576  140.6737  161.9868 C.3     1  UNL1        0.0759
      2 N         143.9745  140.5467  163.4012 N.3     1  UNL1       -0.2725
      3 C         143.9497  141.7501  164.2963 C.3     1  UNL1        0.0725
      4 C         143.4665  141.6231  165.7106 C.3     1  UNL1        0.0234
      5 C         143.0081  140.2926  166.2299 C.3     1  UNL1        0.0464
      6 C         143.0328  139.0892  165.3349 C.3     1  UNL1        0.0234
      7 C         143.5160  139.2162  163.9205 C.3     1  UNL1        0.0725
      8 C         142.5249  140.1655  167.6442 C.ar    1  UNL1        0.1003
      9 N         142.8076  139.0222  168.5732 N.ar    1  UNL1       -0.0814
     10 O         142.1316  139.3096  169.8811 O.2     1  UNL1       -0.3536
     11 C         141.4311  140.6305  169.7604 C.ar    1  UNL1        0.1787
     12 C         140.6033  141.4200  170.7307 C.ar    1  UNL1        0.0698
     13 C         140.0187  142.7384  170.3187 C.ar    1  UNL1        0.1433
     14 F         139.1909  143.5278  171.2890 F       1  UNL1       -0.2041
     15 C         140.2618  143.2674  168.9362 C.ar    1  UNL1        0.0299
     16 C         141.0895  142.4780  167.9659 C.ar    1  UNL1        0.0067
     17 C         141.6742  141.1595  168.3780 C.ar    1  UNL1        0.0540
     18 C         144.1092  141.8904  161.1817 C.3     1  UNL1        0.0646
     19 C         143.1115  141.7910  160.0660 C.3     1  UNL1        0.2068
     20 O         141.6809  142.1746  160.3028 O.3     1  UNL1       -0.4754
     21 C         138.5561  137.2301  165.4543 C.3     1  UNL1        0.1152
     22 N         138.9636  138.6223  165.0722 N.am    1  UNL1       -0.2740
     23 C         138.7370  139.7583  166.0251 C.3     1  UNL1        0.0984
     24 C         139.1445  141.1504  165.6430 C.3     1  UNL1        0.0480
     25 C         139.7786  141.4065  164.3079 C.ar    1  UNL1       -0.0159
     26 C         140.1861  142.7985  163.9258 C.ar    1  UNL1       -0.0010
     27 C         140.8202  143.0546  162.5908 C.ar    1  UNL1        0.0366
     28 C         141.0468  141.9185  161.6379 C.ar    1  UNL1        0.1387
     29 C         140.6393  140.5265  162.0199 C.ar    1  UNL1        0.0411
     30 C         140.0052  140.2704  163.3550 C.ar    1  UNL1        0.0527
     31 C         139.5977  138.8783  163.7371 C.2     1  UNL1        0.2489
     32 O         139.8242  137.7423  162.7842 O.2     1  UNL1       -0.2699
@<TRIPOS>BOND
     1    21    22    1
     2    22    23    1
     3    23    24    1
     4    24    25    1
     5    25    26   ar
     6    26    27   ar
     7    27    28   ar
     8    28    20    1
     9    20    19    1
    10    19    18    1
    11    18     1    1
    12     1     2    1
    13     2     3    1
    14     3     4    1
    15     4     5    1
    16     5     8    1
    17     8     9   ar
    18     9    10   ar
    19    10    11   ar
    20    11    12   ar
    21    12    13   ar
    22    13    14    1
    23    13    15   ar
    24    15    16   ar
    25    16    17   ar
    26     5     6    1
    27     6     7    1
    28    28    29   ar
    29    29    30   ar
    30    30    31    1
    31    31    32    2
    32    31    22   am
    33    30    25   ar
    34     7     2    1
    35    17     8   ar
    36    17    11   ar
@<TRIPOS>MOLECULE
*****
 32 36 0 0 0
SMALL
GASTEIGER

@<TRIPOS>ATOM
      1 C         139.5288  143.6270  157.7363 C.3     1  UNL1        0.0759
      2 N         139.5919  142.5155  158.7416 N.3     1  UNL1       -0.2725
      3 C         140.8246  141.6670  158.8452 C.3     1  UNL1        0.0725
      4 C         140.8878  140.5556  159.8505 C.3     1  UNL1        0.0234
      5 C         139.7183  140.2926  160.7522 C.3     1  UNL1        0.0464
      6 C         138.4857  141.1410  160.6487 C.3     1  UNL1        0.0234
      7 C         138.4224  142.2525  159.6433 C.3     1  UNL1        0.0725
      8 C         139.7815  139.1811  161.7575 C.ar    1  UNL1        0.1003
      9 N         140.4007  137.8319  161.5425 N.ar    1  UNL1       -0.0814
     10 O         140.2384  137.0406  162.8065 O.2     1  UNL1       -0.3536
     11 C         139.5189  137.9009  163.8027 C.ar    1  UNL1        0.1787
     12 C         139.0844  137.6505  165.2164 C.ar    1  UNL1        0.0698
     13 C         138.3675  138.7229  165.9818 C.ar    1  UNL1        0.1433
     14 F         137.9330  138.4726  167.3954 F       1  UNL1       -0.2041
     15 C         138.0850  140.0459  165.3335 C.ar    1  UNL1        0.0299
     16 C         138.5196  140.2962  163.9198 C.ar    1  UNL1        0.0067
     17 C         139.2365  139.2237  163.1544 C.ar    1  UNL1        0.0540
     18 C         140.2298  144.9248  158.0082 C.3     1  UNL1        0.0646
     19 C         140.6830  145.2554  159.3994 C.3     1  UNL1        0.2068
     20 O         139.6713  145.4990  160.4797 O.3     1  UNL1       -0.4754
     21 C         143.2042  140.2858  165.0723 C.3     1  UNL1        0.1152
     22 N         142.1951  141.3800  164.8858 N.am    1  UNL1       -0.2740
     23 C         141.3546  141.8304  166.0437 C.3     1  UNL1        0.0984
     24 C         140.3456  142.9244  165.8572 C.3     1  UNL1        0.0480
     25 C         140.1770  143.5681  164.5128 C.ar    1  UNL1       -0.0159
     26 C         139.1680  144.6622  164.3263 C.ar    1  UNL1       -0.0010
     27 C         138.9994  145.3058  162.9820 C.ar    1  UNL1        0.0366
     28 C         139.8399  144.8554  161.8241 C.ar    1  UNL1        0.1387
     29 C         140.8490  143.7613  162.0106 C.ar    1  UNL1        0.0411
     30 C         141.0175  143.1177  163.3549 C.ar    1  UNL1        0.0527
     31 C         142.0266  142.0236  163.5415 C.2     1  UNL1        0.2489
     32 O         142.8671  141.5731  162.3836 O.2     1  UNL1       -0.2699
@<TRIPOS>BOND
     1    21    22    1
     2    22    23    1
     3    23    24    1
     4    24    25    1
     5    25    26   ar
     6    26    27   ar
     7    27    28   ar
     8    28    20    1
     9    20    19    1
    10    19    18    1
    11    18     1    1
    12     1     2    1
    13     2     3    1
    14     3     4    1
    15     4     5    1
    16     5     8    1
    17     8     9   ar
    18     9    10   ar
    19    10    11   ar
    20    11    12   ar
    21    12    13   ar
    22    13    14    1
    23    13    15   ar
    24    15    16   ar
    25    16    17   ar
    26     5     6    1
    27     6     7    1
    28    28    29   ar
    29    29    30   ar
    30    30    31    1
    31    31    32    2
    32    31    22   am
    33    30    25   ar
    34     7     2    1
    35    17     8   ar
    36    17    11   ar
