@<TRIPOS>MOLECULE
*****
 21 24 0 0 0
SMALL
GASTEIGER

@<TRIPOS>ATOM
      1 N         139.4986  139.8401  168.0188 N.ar    1  UNL1       -0.2281
      2 C         139.8049  140.0056  166.5598 C.ar    1  UNL1        0.1019
      3 C         138.7254  139.3170  165.7785 C.ar    1  UNL1        0.0402
      4 C         137.7520  138.7259  166.7547 C.ar    1  UNL1        0.1220
      5 N         138.2298  139.0492  168.1393 N.ar    1  UNL1       -0.1635
      6 C         138.6352  139.2341  164.2835 C.ar    1  UNL1        0.0061
      7 C         138.7990  137.9118  163.5944 C.ar    1  UNL1        0.0208
      8 C         138.7088  137.8289  162.0995 C.ar    1  UNL1        0.0988
      9 N         138.4548  139.0682  161.2935 N.ar    1  UNL1       -0.2438
     10 C         138.2909  140.3905  161.9825 C.ar    1  UNL1        0.0813
     11 C         138.0369  141.6298  161.1766 C.ar    1  UNL1        0.0191
     12 C         137.8730  142.9520  161.8656 C.ar    1  UNL1        0.0015
     13 C         137.9632  143.0349  163.3606 C.ar    1  UNL1        0.0001
     14 C         138.2173  141.7957  164.1666 C.ar    1  UNL1        0.0015
     15 C         138.3811  140.4734  163.4775 C.ar    1  UNL1        0.0178
     16 C         141.9550  141.4362  171.4347 C.ar    1  UNL1        0.0001
     17 C         140.6309  142.0603  171.1074 C.ar    1  UNL1        0.0015
     18 C         139.8121  141.5282  169.9687 C.ar    1  UNL1        0.0191
     19 C         140.3174  140.3722  169.1575 C.ar    1  UNL1        0.0828
     20 C         141.6416  139.7481  169.4848 C.ar    1  UNL1        0.0191
     21 C         142.4604  140.2801  170.6235 C.ar    1  UNL1        0.0015
@<TRIPOS>BOND
     1    16    17   ar
     2    17    18   ar
     3    18    19   ar
     4    19     1    1
     5     1     2   ar
     6     2     3   ar
     7     3     6    1
     8     6     7   ar
     9     7     8   ar
    10     8     9   ar
    11     9    10   ar
    12    10    11   ar
    13    11    12   ar
    14    12    13   ar
    15    13    14   ar
    16    14    15   ar
    17     3     4   ar
    18     4     5   ar
    19    19    20   ar
    20    20    21   ar
    21    21    16   ar
    22     5     1   ar
    23    15     6   ar
    24    15    10   ar
@<TRIPOS>MOLECULE
*****
 21 24 0 0 0
SMALL
GASTEIGER

@<TRIPOS>ATOM
      1 N         142.4906  140.4127  167.2384 N.ar    1  UNL1       -0.2281
      2 C         142.1614  140.4490  165.7754 C.ar    1  UNL1        0.1019
      3 C         142.6604  139.1771  165.1562 C.ar    1  UNL1        0.0402
      4 C         143.2981  138.3548  166.2366 C.ar    1  UNL1        0.1220
      5 N         143.1932  139.1184  167.5234 N.ar    1  UNL1       -0.1635
      6 C         142.5425  138.7948  163.7106 C.ar    1  UNL1        0.0061
      7 C         143.7777  138.6236  162.8769 C.ar    1  UNL1        0.0208
      8 C         143.6598  138.2412  161.4312 C.ar    1  UNL1        0.0988
      9 N         142.3067  138.0300  160.8193 N.ar    1  UNL1       -0.2438
     10 C         141.0715  138.2012  161.6530 C.ar    1  UNL1        0.0813
     11 C         139.7184  137.9900  161.0410 C.ar    1  UNL1        0.0191
     12 C         138.4832  138.1611  161.8747 C.ar    1  UNL1        0.0015
     13 C         138.6012  138.5435  163.3203 C.ar    1  UNL1        0.0001
     14 C         139.9542  138.7547  163.9323 C.ar    1  UNL1        0.0015
     15 C         141.1894  138.5835  163.0986 C.ar    1  UNL1        0.0178
     16 C         141.5380  143.6230  170.2443 C.ar    1  UNL1        0.0001
     17 C         140.5375  143.2667  169.1851 C.ar    1  UNL1        0.0015
     18 C         140.8550  142.1966  168.1831 C.ar    1  UNL1        0.0191
     19 C         142.1731  141.4828  168.2403 C.ar    1  UNL1        0.0828
     20 C         143.1736  141.8391  169.2996 C.ar    1  UNL1        0.0191
     21 C         142.8560  142.9093  170.3015 C.ar    1  UNL1        0.0015
@<TRIPOS>BOND
     1    16    17   ar
     2    17    18   ar
     3    18    19   ar
     4    19     1    1
     5     1     2   ar
     6     2     3   ar
     7     3     6    1
     8     6     7   ar
     9     7     8   ar
    10     8     9   ar
    11     9    10   ar
    12    10    11   ar
    13    11    12   ar
    14    12    13   ar
    15    13    14   ar
    16    14    15   ar
    17     3     4   ar
    18     4     5   ar
    19    19    20   ar
    20    20    21   ar
    21    21    16   ar
    22     5     1   ar
    23    15     6   ar
    24    15    10   ar
@<TRIPOS>MOLECULE
*****
 21 24 0 0 0
SMALL
GASTEIGER

@<TRIPOS>ATOM
      1 N         139.6441  140.1081  167.6801 N.ar    1  UNL1       -0.2281
      2 C         139.7045  140.9282  166.4256 C.ar    1  UNL1        0.1019
      3 C         138.6643  140.4056  165.4796 C.ar    1  UNL1        0.0402
      4 C         137.9611  139.2625  166.1495 C.ar    1  UNL1        0.1220
      5 N         138.5666  139.0786  167.5095 N.ar    1  UNL1       -0.1635
      6 C         138.3778  140.9334  164.1051 C.ar    1  UNL1        0.0061
      7 C         137.7996  142.3069  163.9346 C.ar    1  UNL1        0.0208
      8 C         137.5130  142.8347  162.5601 C.ar    1  UNL1        0.0988
      9 N         137.8046  141.9890  161.3561 N.ar    1  UNL1       -0.2438
     10 C         138.3828  140.6154  161.5265 C.ar    1  UNL1        0.0813
     11 C         138.6744  139.7697  160.3225 C.ar    1  UNL1        0.0191
     12 C         139.2526  138.3961  160.4930 C.ar    1  UNL1        0.0015
     13 C         139.5392  137.8683  161.8675 C.ar    1  UNL1        0.0001
     14 C         139.2476  138.7140  163.0715 C.ar    1  UNL1        0.0015
     15 C         138.6694  140.0876  162.9010 C.ar    1  UNL1        0.0178
     16 C         142.2398  140.6425  171.3170 C.ar    1  UNL1        0.0001
     17 C         142.7783  139.9356  170.1086 C.ar    1  UNL1        0.0015
     18 C         141.9131  139.7575  168.8963 C.ar    1  UNL1        0.0191
     19 C         140.5093  140.2862  168.8924 C.ar    1  UNL1        0.0828
     20 C         139.9708  140.9930  170.1009 C.ar    1  UNL1        0.0191
     21 C         140.8360  141.1712  171.3131 C.ar    1  UNL1        0.0015
@<TRIPOS>BOND
     1    16    17   ar
     2    17    18   ar
     3    18    19   ar
     4    19     1    1
     5     1     2   ar
     6     2     3   ar
     7     3     6    1
     8     6     7   ar
     9     7     8   ar
    10     8     9   ar
    11     9    10   ar
    12    10    11   ar
    13    11    12   ar
    14    12    13   ar
    15    13    14   ar
    16    14    15   ar
    17     3     4   ar
    18     4     5   ar
    19    19    20   ar
    20    20    21   ar
    21    21    16   ar
    22     5     1   ar
    23    15     6   ar
    24    15    10   ar
@<TRIPOS>MOLECULE
*****
 21 24 0 0 0
SMALL
GASTEIGER

@<TRIPOS>ATOM
      1 N         139.5731  140.3399  167.6067 N.ar    1  UNL1       -0.2281
      2 C         139.8107  140.6989  166.1699 C.ar    1  UNL1        0.1019
      3 C         138.9087  139.8495  165.3245 C.ar    1  UNL1        0.0402
      4 C         138.1135  138.9655  166.2389 C.ar    1  UNL1        0.1220
      5 N         138.5241  139.2686  167.6494 N.ar    1  UNL1       -0.1635
      6 C         138.8178  139.8789  163.8275 C.ar    1  UNL1        0.0061
      7 C         137.6826  140.5960  163.1590 C.ar    1  UNL1        0.0208
      8 C         137.5917  140.6255  161.6620 C.ar    1  UNL1        0.0988
      9 N         138.6360  139.9377  160.8336 N.ar    1  UNL1       -0.2438
     10 C         139.7713  139.2205  161.5021 C.ar    1  UNL1        0.0813
     11 C         140.8156  138.5327  160.6737 C.ar    1  UNL1        0.0191
     12 C         141.9508  137.8156  161.3422 C.ar    1  UNL1        0.0015
     13 C         142.0417  137.7861  162.8391 C.ar    1  UNL1        0.0001
     14 C         140.9974  138.4739  163.6676 C.ar    1  UNL1        0.0015
     15 C         139.8622  139.1911  162.9991 C.ar    1  UNL1        0.0178
     16 C         141.6435  142.1577  171.1646 C.ar    1  UNL1        0.0001
     17 C         141.1232  143.0395  170.0684 C.ar    1  UNL1        0.0015
     18 C         140.4330  142.4335  168.8824 C.ar    1  UNL1        0.0191
     19 C         140.2632  140.9458  168.7927 C.ar    1  UNL1        0.0828
     20 C         140.7835  140.0641  169.8890 C.ar    1  UNL1        0.0191
     21 C         141.4737  140.6701  171.0749 C.ar    1  UNL1        0.0015
@<TRIPOS>BOND
     1    16    17   ar
     2    17    18   ar
     3    18    19   ar
     4    19     1    1
     5     1     2   ar
     6     2     3   ar
     7     3     6    1
     8     6     7   ar
     9     7     8   ar
    10     8     9   ar
    11     9    10   ar
    12    10    11   ar
    13    11    12   ar
    14    12    13   ar
    15    13    14   ar
    16    14    15   ar
    17     3     4   ar
    18     4     5   ar
    19    19    20   ar
    20    20    21   ar
    21    21    16   ar
    22     5     1   ar
    23    15     6   ar
    24    15    10   ar
@<TRIPOS>MOLECULE
*****
 21 24 0 0 0
SMALL
GASTEIGER

@<TRIPOS>ATOM
      1 N         142.5466  142.0226  166.9852 N.ar    1  UNL1       -0.2281
      2 C         142.1434  142.0226  165.5404 C.ar    1  UNL1        0.1019
      3 C         143.1441  142.8411  164.7798 C.ar    1  UNL1        0.0402
      4 C         144.1659  143.3470  165.7546 C.ar    1  UNL1        0.1220
      5 N         143.7966  142.8412  167.1176 N.ar    1  UNL1       -0.1635
      6 C         143.1263  143.1071  163.3037 C.ar    1  UNL1        0.0061
      7 C         144.1712  142.4950  162.4186 C.ar    1  UNL1        0.0208
      8 C         144.1533  142.7609  160.9425 C.ar    1  UNL1        0.0988
      9 N         143.0905  143.6390  160.3514 N.ar    1  UNL1       -0.2438
     10 C         142.0455  144.2512  161.2365 C.ar    1  UNL1        0.0813
     11 C         140.9828  145.1293  160.6454 C.ar    1  UNL1        0.0191
     12 C         139.9378  145.7414  161.5305 C.ar    1  UNL1        0.0015
     13 C         139.9557  145.4755  163.0066 C.ar    1  UNL1        0.0001
     14 C         141.0185  144.5974  163.5977 C.ar    1  UNL1        0.0015
     15 C         142.0634  143.9852  162.7126 C.ar    1  UNL1        0.0178
     16 C         140.3858  139.9337  170.3344 C.ar    1  UNL1        0.0001
     17 C         139.7485  141.1038  169.6453 C.ar    1  UNL1        0.0015
     18 C         140.4688  141.8001  168.5289 C.ar    1  UNL1        0.0191
     19 C         141.8263  141.3263  168.1016 C.ar    1  UNL1        0.0828
     20 C         142.4636  140.1563  168.7906 C.ar    1  UNL1        0.0191
     21 C         141.7433  139.4600  169.9070 C.ar    1  UNL1        0.0015
@<TRIPOS>BOND
     1    16    17   ar
     2    17    18   ar
     3    18    19   ar
     4    19     1    1
     5     1     2   ar
     6     2     3   ar
     7     3     6    1
     8     6     7   ar
     9     7     8   ar
    10     8     9   ar
    11     9    10   ar
    12    10    11   ar
    13    11    12   ar
    14    12    13   ar
    15    13    14   ar
    16    14    15   ar
    17     3     4   ar
    18     4     5   ar
    19    19    20   ar
    20    20    21   ar
    21    21    16   ar
    22     5     1   ar
    23    15     6   ar
    24    15    10   ar
@<TRIPOS>MOLECULE
*****
 21 24 0 0 0
SMALL
GASTEIGER

@<TRIPOS>ATOM
      1 N         140.9206  142.0868  166.3216 N.ar    1  UNL1       -0.2281
      2 C         141.0340  140.7755  165.6022 C.ar    1  UNL1        0.1019
      3 C         140.3444  140.9123  164.2772 C.ar    1  UNL1        0.0402
      4 C         139.8047  142.3083  164.1777 C.ar    1  UNL1        0.1220
      5 N         140.1608  143.0342  165.4411 N.ar    1  UNL1       -0.1635
      6 C         140.2169  139.8413  163.2348 C.ar    1  UNL1        0.0061
      7 C         138.8700  139.2653  162.9122 C.ar    1  UNL1        0.0208
      8 C         138.7425  138.1943  161.8698 C.ar    1  UNL1        0.0988
      9 N         139.9618  137.6992  161.1500 N.ar    1  UNL1       -0.2438
     10 C         141.3088  138.2752  161.4726 C.ar    1  UNL1        0.0813
     11 C         142.5281  137.7802  160.7528 C.ar    1  UNL1        0.0191
     12 C         143.8749  138.3562  161.0755 C.ar    1  UNL1        0.0015
     13 C         144.0025  139.4272  162.1179 C.ar    1  UNL1        0.0001
     14 C         142.7831  139.9223  162.8376 C.ar    1  UNL1        0.0015
     15 C         141.4363  139.3463  162.5150 C.ar    1  UNL1        0.0178
     16 C         142.5699  143.0157  170.4041 C.ar    1  UNL1        0.0001
     17 C         141.1543  143.3790  170.0667 C.ar    1  UNL1        0.0015
     18 C         140.6045  143.0694  168.7058 C.ar    1  UNL1        0.0191
     19 C         141.4703  142.3964  167.6824 C.ar    1  UNL1        0.0828
     20 C         142.8860  142.0331  168.0198 C.ar    1  UNL1        0.0191
     21 C         143.4358  142.3427  169.3806 C.ar    1  UNL1        0.0015
@<TRIPOS>BOND
     1    16    17   ar
     2    17    18   ar
     3    18    19   ar
     4    19     1    1
     5     1     2   ar
     6     2     3   ar
     7     3     6    1
     8     6     7   ar
     9     7     8   ar
    10     8     9   ar
    11     9    10   ar
    12    10    11   ar
    13    11    12   ar
    14    12    13   ar
    15    13    14   ar
    16    14    15   ar
    17     3     4   ar
    18     4     5   ar
    19    19    20   ar
    20    20    21   ar
    21    21    16   ar
    22     5     1   ar
    23    15     6   ar
    24    15    10   ar
@<TRIPOS>MOLECULE
*****
 21 24 0 0 0
SMALL
GASTEIGER

@<TRIPOS>ATOM
      1 N         140.5937  140.7846  167.8542 N.ar    1  UNL1       -0.2281
      2 C         141.0322  140.4275  166.4648 C.ar    1  UNL1        0.1019
      3 C         140.0240  139.4769  165.8904 C.ar    1  UNL1        0.0402
      4 C         138.9624  139.2465  166.9248 C.ar    1  UNL1        0.1220
      5 N         139.3145  140.0546  168.1385 N.ar    1  UNL1       -0.1635
      6 C         140.0694  138.8643  164.5220 C.ar    1  UNL1        0.0061
      7 C         140.9485  137.6774  164.2604 C.ar    1  UNL1        0.0208
      8 C         140.9939  137.0649  162.8919 C.ar    1  UNL1        0.0988
      9 N         140.1603  137.6392  161.7851 N.ar    1  UNL1       -0.2438
     10 C         139.2812  138.8262  162.0466 C.ar    1  UNL1        0.0813
     11 C         138.4475  139.4005  160.9398 C.ar    1  UNL1        0.0191
     12 C         137.5685  140.5874  161.2014 C.ar    1  UNL1        0.0015
     13 C         137.5231  141.2000  162.5699 C.ar    1  UNL1        0.0001
     14 C         138.3567  140.6256  163.6767 C.ar    1  UNL1        0.0015
     15 C         139.2357  139.4387  163.4151 C.ar    1  UNL1        0.0178
     16 C         142.7393  143.5585  170.6741 C.ar    1  UNL1        0.0001
     17 C         143.4527  142.3676  170.1059 C.ar    1  UNL1        0.0015
     18 C         142.7375  141.4430  169.1660 C.ar    1  UNL1        0.0191
     19 C         141.3089  141.7092  168.7941 C.ar    1  UNL1        0.0828
     20 C         140.5955  142.9001  169.3623 C.ar    1  UNL1        0.0191
     21 C         141.3107  143.8247  170.3023 C.ar    1  UNL1        0.0015
@<TRIPOS>BOND
     1    16    17   ar
     2    17    18   ar
     3    18    19   ar
     4    19     1    1
     5     1     2   ar
     6     2     3   ar
     7     3     6    1
     8     6     7   ar
     9     7     8   ar
    10     8     9   ar
    11     9    10   ar
    12    10    11   ar
    13    11    12   ar
    14    12    13   ar
    15    13    14   ar
    16    14    15   ar
    17     3     4   ar
    18     4     5   ar
    19    19    20   ar
    20    20    21   ar
    21    21    16   ar
    22     5     1   ar
    23    15     6   ar
    24    15    10   ar
@<TRIPOS>MOLECULE
*****
 21 24 0 0 0
SMALL
GASTEIGER

@<TRIPOS>ATOM
      1 N         139.4073  139.7211  165.8192 N.ar    1  UNL1       -0.2281
      2 C         139.3904  140.2796  164.4271 C.ar    1  UNL1        0.1019
      3 C         139.1022  139.1534  163.4792 C.ar    1  UNL1        0.0402
      4 C         138.9410  137.8988  164.2855 C.ar    1  UNL1        0.1220
      5 N         139.1296  138.2497  165.7316 N.ar    1  UNL1       -0.1635
      6 C         138.9942  139.2626  161.9871 C.ar    1  UNL1        0.0061
      7 C         137.7427  139.8054  161.3635 C.ar    1  UNL1        0.0208
      8 C         137.6346  139.9146  159.8714 C.ar    1  UNL1        0.0988
      9 N         138.7781  139.4809  159.0029 N.ar    1  UNL1       -0.2438
     10 C         140.0297  138.9381  159.6265 C.ar    1  UNL1        0.0813
     11 C         141.1732  138.5044  158.7580 C.ar    1  UNL1        0.0191
     12 C         142.4248  137.9616  159.3817 C.ar    1  UNL1        0.0015
     13 C         142.5328  137.8524  160.8738 C.ar    1  UNL1        0.0001
     14 C         141.3893  138.2860  161.7423 C.ar    1  UNL1        0.0015
     15 C         140.1378  138.8289  161.1186 C.ar    1  UNL1        0.0178
     16 C         140.1593  142.0509  169.5949 C.ar    1  UNL1        0.0001
     17 C         140.5840  142.6121  168.2703 C.ar    1  UNL1        0.0015
     18 C         140.3333  141.8355  167.0117 C.ar    1  UNL1        0.0191
     19 C         139.6580  140.4977  167.0778 C.ar    1  UNL1        0.0828
     20 C         139.2333  139.9366  168.4024 C.ar    1  UNL1        0.0191
     21 C         139.4839  140.7132  169.6610 C.ar    1  UNL1        0.0015
@<TRIPOS>BOND
     1    16    17   ar
     2    17    18   ar
     3    18    19   ar
     4    19     1    1
     5     1     2   ar
     6     2     3   ar
     7     3     6    1
     8     6     7   ar
     9     7     8   ar
    10     8     9   ar
    11     9    10   ar
    12    10    11   ar
    13    11    12   ar
    14    12    13   ar
    15    13    14   ar
    16    14    15   ar
    17     3     4   ar
    18     4     5   ar
    19    19    20   ar
    20    20    21   ar
    21    21    16   ar
    22     5     1   ar
    23    15     6   ar
    24    15    10   ar
@<TRIPOS>MOLECULE
*****
 21 24 0 0 0
SMALL
GASTEIGER

@<TRIPOS>ATOM
      1 N         142.9329  140.2641  163.8184 N.ar    1  UNL1       -0.2281
      2 C         141.8760  140.7302  164.7753 C.ar    1  UNL1        0.1019
      3 C         141.6431  139.6380  165.7767 C.ar    1  UNL1        0.0402
      4 C         142.5561  138.4969  165.4388 C.ar    1  UNL1        0.1220
      5 N         143.3533  138.8838  164.2285 N.ar    1  UNL1       -0.1635
      6 C         140.6683  139.6796  166.9161 C.ar    1  UNL1        0.0061
      7 C         139.2265  139.3380  166.6825 C.ar    1  UNL1        0.0208
      8 C         138.2518  139.3796  167.8218 C.ar    1  UNL1        0.0988
      9 N         138.7187  139.7629  169.1947 N.ar    1  UNL1       -0.2438
     10 C         140.1605  140.1046  169.4284 C.ar    1  UNL1        0.0813
     11 C         140.6275  140.4879  170.8013 C.ar    1  UNL1        0.0191
     12 C         142.0692  140.8295  171.0349 C.ar    1  UNL1        0.0015
     13 C         143.0440  140.7879  169.8956 C.ar    1  UNL1        0.0001
     14 C         142.5770  140.4046  168.5227 C.ar    1  UNL1        0.0015
     15 C         141.1353  140.0629  168.2891 C.ar    1  UNL1        0.0178
     16 C         144.5575  142.5970  160.3301 C.ar    1  UNL1        0.0001
     17 C         144.6260  143.1718  161.7139 C.ar    1  UNL1        0.0015
     18 C         144.0844  142.3942  162.8767 C.ar    1  UNL1        0.0191
     19 C         143.4745  141.0417  162.6557 C.ar    1  UNL1        0.0828
     20 C         143.4060  140.4669  161.2719 C.ar    1  UNL1        0.0191
     21 C         143.9475  141.2445  160.1091 C.ar    1  UNL1        0.0015
@<TRIPOS>BOND
     1    16    17   ar
     2    17    18   ar
     3    18    19   ar
     4    19     1    1
     5     1     2   ar
     6     2     3   ar
     7     3     6    1
     8     6     7   ar
     9     7     8   ar
    10     8     9   ar
    11     9    10   ar
    12    10    11   ar
    13    11    12   ar
    14    12    13   ar
    15    13    14   ar
    16    14    15   ar
    17     3     4   ar
    18     4     5   ar
    19    19    20   ar
    20    20    21   ar
    21    21    16   ar
    22     5     1   ar
    23    15     6   ar
    24    15    10   ar
