@<TRIPOS>MOLECULE
*****
 34 38 0 0 0
SMALL
GASTEIGER

@<TRIPOS>ATOM
      1 C         139.6244  138.8963  161.5911 C.ar    1  UNL1        0.2037
      2 N         138.2137  139.4051  161.5600 N.ar    1  UNL1       -0.0555
      3 O         137.7712  139.6315  162.9752 O.2     1  UNL1       -0.3291
      4 C         138.9086  139.2626  163.8811 C.ar    1  UNL1        0.2973
      5 N         140.0539  138.8083  163.0256 N.ar    1  UNL1       -0.1843
      6 C         142.1287  137.8226  158.0098 C.ar    1  UNL1       -0.0061
      7 C         142.7518  137.8710  159.3733 C.ar    1  UNL1       -0.0028
      8 C         141.9170  138.2289  160.5671 C.ar    1  UNL1        0.0029
      9 C         140.4592  138.5384  160.3973 C.ar    1  UNL1        0.0391
     10 C         139.8361  138.4900  159.0337 C.ar    1  UNL1        0.0029
     11 C         140.6708  138.1321  157.8400 C.ar    1  UNL1       -0.0028
     12 C         142.9634  137.4647  156.8160 C.3     1  UNL1        0.0992
     13 C         143.6901  133.9921  156.0900 C.3     1  UNL1        0.0684
     14 C         143.3761  134.7730  157.3317 C.3     1  UNL1        0.0793
     15 N         143.2644  136.0263  156.5153 N.3     1  UNL1       -0.2682
     16 C         143.5784  135.2455  155.2736 C.3     1  UNL1        0.0793
     17 O         145.3062  131.9609  156.2003 O.co2   1  UNL1       -0.5491
     18 C         143.9911  132.5537  155.7892 C.2     1  UNL1        0.0527
     19 O         142.9769  131.7082  155.0775 O.co2   1  UNL1       -0.5491
     20 C         138.9017  139.3354  165.3793 C.ar    1  UNL1        0.2363
     21 O         137.8610  138.7479  166.2858 O.2     1  UNL1       -0.3486
     22 N         138.2505  139.0578  167.7008 N.ar    1  UNL1       -0.0768
     23 C         139.5320  139.8368  167.6688 C.ar    1  UNL1        0.1270
     24 C         139.9344  140.0084  166.2341 C.ar    1  UNL1        0.1340
     25 C         140.2795  140.3535  168.8621 C.ar    1  UNL1        0.0209
     26 C         141.5803  139.7229  169.2630 C.ar    1  UNL1        0.0016
     27 C         142.3279  140.2397  170.4563 C.ar    1  UNL1        0.0000
     28 C         141.7749  141.3869  171.2487 C.ar    1  UNL1        0.0000
     29 C         140.4743  142.0175  170.8479 C.ar    1  UNL1        0.0000
     30 C         139.7266  141.5008  169.6546 C.ar    1  UNL1        0.0016
     31 C         141.1552  140.7268  165.7407 C.3     1  UNL1        0.4232
     32 F         142.3760  141.4453  165.2473 F       1  UNL1       -0.1657
     33 F         141.9139  139.4328  165.7336 F       1  UNL1       -0.1657
     34 F         140.3966  142.0208  165.7478 F       1  UNL1       -0.1657
@<TRIPOS>UNITY_ATOM_ATTR
17 1
charge -1
@<TRIPOS>BOND
     1    17    18   ar
     2    18    19   ar
     3    18    13    1
     4    13    14    1
     5    14    15    1
     6    15    12    1
     7    12     6    1
     8     6     7   ar
     9     7     8   ar
    10     8     9   ar
    11     9     1    1
    12     1     2   ar
    13     2     3   ar
    14     3     4   ar
    15     4    20    1
    16    20    21   ar
    17    21    22   ar
    18    22    23   ar
    19    23    25    1
    20    25    26   ar
    21    26    27   ar
    22    27    28   ar
    23    28    29   ar
    24    29    30   ar
    25    23    24   ar
    26    24    31    1
    27    31    32    1
    28    31    33    1
    29    31    34    1
    30     4     5   ar
    31     9    10   ar
    32    10    11   ar
    33    15    16    1
    34    16    13    1
    35    11     6   ar
    36     5     1   ar
    37    24    20   ar
    38    30    25   ar
@<TRIPOS>MOLECULE
*****
 34 38 0 0 0
SMALL
GASTEIGER

@<TRIPOS>ATOM
      1 C         142.1694  143.9362  159.2580 C.ar    1  UNL1        0.2037
      2 N         143.5506  143.3798  159.4389 N.ar    1  UNL1       -0.0555
      3 O         143.6070  142.7053  160.7775 O.2     1  UNL1       -0.3291
      4 C         142.2606  142.8449  161.4239 C.ar    1  UNL1        0.2973
      5 N         141.3722  143.6057  160.4848 N.ar    1  UNL1       -0.1843
      6 C         140.6796  146.1999  155.6655 C.ar    1  UNL1       -0.0061
      7 C         141.8797  145.3082  155.5453 C.ar    1  UNL1       -0.0028
      8 C         142.3763  144.5536  156.7428 C.ar    1  UNL1        0.0029
      9 C         141.6728  144.6908  158.0605 C.ar    1  UNL1        0.0391
     10 C         140.4727  145.5825  158.1806 C.ar    1  UNL1        0.0029
     11 C         139.9760  146.3371  156.9831 C.ar    1  UNL1       -0.0028
     12 C         140.1829  146.9545  154.4679 C.3     1  UNL1        0.0992
     13 C         139.2061  150.4264  154.7927 C.3     1  UNL1        0.0684
     14 C         138.7911  149.1421  155.4472 C.3     1  UNL1        0.0793
     15 N         139.7783  148.3926  154.6025 N.3     1  UNL1       -0.2682
     16 C         140.1933  149.6768  153.9479 C.3     1  UNL1        0.0793
     17 O         138.2292  152.5960  153.7493 O.co2   1  UNL1       -0.5491
     18 C         138.8016  151.8646  154.9272 C.2     1  UNL1        0.0527
     19 O         138.9694  152.5713  156.2396 O.co2   1  UNL1       -0.5491
     20 C         141.8710  142.3165  162.7726 C.ar    1  UNL1        0.2363
     21 O         141.0822  141.0682  163.0363 O.2     1  UNL1       -0.3486
     22 N         140.9256  140.9239  164.5211 N.ar    1  UNL1       -0.0768
     23 C         141.6176  142.0830  165.1751 C.ar    1  UNL1        0.1270
     24 C         142.2019  142.9436  164.0944 C.ar    1  UNL1        0.1340
     25 C         141.7091  142.3367  166.6506 C.ar    1  UNL1        0.0209
     26 C         140.5065  142.8227  167.4040 C.ar    1  UNL1        0.0016
     27 C         140.5981  143.0765  168.8796 C.ar    1  UNL1        0.0000
     28 C         141.8921  142.8443  169.6016 C.ar    1  UNL1        0.0000
     29 C         143.0947  142.3583  168.8482 C.ar    1  UNL1        0.0000
     30 C         143.0032  142.1045  167.3727 C.ar    1  UNL1        0.0016
     31 C         142.9804  144.2092  164.2996 C.3     1  UNL1        0.4232
     32 F         143.7590  145.4749  164.5048 F       1  UNL1       -0.1657
     33 F         141.7238  145.0102  164.1271 F       1  UNL1       -0.1657
     34 F         144.2369  143.4083  164.4722 F       1  UNL1       -0.1657
@<TRIPOS>UNITY_ATOM_ATTR
17 1
charge -1
@<TRIPOS>BOND
     1    17    18   ar
     2    18    19   ar
     3    18    13    1
     4    13    14    1
     5    14    15    1
     6    15    12    1
     7    12     6    1
     8     6     7   ar
     9     7     8   ar
    10     8     9   ar
    11     9     1    1
    12     1     2   ar
    13     2     3   ar
    14     3     4   ar
    15     4    20    1
    16    20    21   ar
    17    21    22   ar
    18    22    23   ar
    19    23    25    1
    20    25    26   ar
    21    26    27   ar
    22    27    28   ar
    23    28    29   ar
    24    29    30   ar
    25    23    24   ar
    26    24    31    1
    27    31    32    1
    28    31    33    1
    29    31    34    1
    30     4     5   ar
    31     9    10   ar
    32    10    11   ar
    33    15    16    1
    34    16    13    1
    35    11     6   ar
    36     5     1   ar
    37    24    20   ar
    38    30    25   ar
@<TRIPOS>MOLECULE
*****
 34 38 0 0 0
SMALL
GASTEIGER

@<TRIPOS>ATOM
      1 C         139.3272  139.1453  161.6836 C.ar    1  UNL1        0.2037
      2 N         138.7366  138.3251  160.5752 N.ar    1  UNL1       -0.0555
      3 O         139.3757  138.7558  159.2884 O.2     1  UNL1       -0.3291
      4 C         140.3614  139.8424  159.6015 C.ar    1  UNL1        0.2973
      5 N         140.3314  140.0830  161.0817 N.ar    1  UNL1       -0.1843
      6 C         138.2718  138.8452  166.0477 C.ar    1  UNL1       -0.0061
      7 C         138.7083  137.6229  165.2959 C.ar    1  UNL1       -0.0028
      8 C         139.0601  137.7229  163.8412 C.ar    1  UNL1        0.0029
      9 C         138.9754  139.0453  163.1383 C.ar    1  UNL1        0.0391
     10 C         138.5389  140.2677  163.8901 C.ar    1  UNL1        0.0029
     11 C         138.1871  140.1676  165.3448 C.ar    1  UNL1       -0.0028
     12 C         137.9200  138.7452  167.5025 C.3     1  UNL1        0.0992
     13 C         139.7475  140.6959  169.9456 C.3     1  UNL1        0.0684
     14 C         138.3740  140.0967  169.8793 C.3     1  UNL1        0.0793
     15 N         138.6770  139.5532  168.5144 N.3     1  UNL1       -0.2682
     16 C         140.0505  140.1525  168.5807 C.3     1  UNL1        0.0793
     17 O         141.7390  140.9399  171.5962 O.co2   1  UNL1       -0.5491
     18 C         140.5046  141.5040  170.9576 C.2     1  UNL1        0.0527
     19 O         140.0271  142.8761  171.3309 O.co2   1  UNL1       -0.5491
     20 C         141.2254  140.5619  158.6086 C.ar    1  UNL1        0.2363
     21 O         140.7436  141.4617  157.5094 O.2     1  UNL1       -0.3486
     22 N         141.9433  141.9638  156.7620 N.ar    1  UNL1       -0.0768
     23 C         143.1666  141.3743  157.3993 C.ar    1  UNL1        0.1270
     24 C         142.7229  140.5079  158.5405 C.ar    1  UNL1        0.1340
     25 C         144.5845  141.6099  156.9706 C.ar    1  UNL1        0.0209
     26 C         145.1289  140.9083  155.7616 C.ar    1  UNL1        0.0016
     27 C         146.5469  141.1439  155.3328 C.ar    1  UNL1        0.0000
     28 C         147.4204  142.0811  156.1129 C.ar    1  UNL1        0.0000
     29 C         146.8761  142.7826  157.3218 C.ar    1  UNL1        0.0000
     30 C         145.4581  142.5471  157.7507 C.ar    1  UNL1        0.0016
     31 C         143.6193  139.7249  159.4534 C.3     1  UNL1        0.4232
     32 F         144.5157  138.9419  160.3663 F       1  UNL1       -0.1657
     33 F         143.8997  140.9682  160.2445 F       1  UNL1       -0.1657
     34 F         143.3390  138.4817  158.6623 F       1  UNL1       -0.1657
@<TRIPOS>UNITY_ATOM_ATTR
17 1
charge -1
@<TRIPOS>BOND
     1    17    18   ar
     2    18    19   ar
     3    18    13    1
     4    13    14    1
     5    14    15    1
     6    15    12    1
     7    12     6    1
     8     6     7   ar
     9     7     8   ar
    10     8     9   ar
    11     9     1    1
    12     1     2   ar
    13     2     3   ar
    14     3     4   ar
    15     4    20    1
    16    20    21   ar
    17    21    22   ar
    18    22    23   ar
    19    23    25    1
    20    25    26   ar
    21    26    27   ar
    22    27    28   ar
    23    28    29   ar
    24    29    30   ar
    25    23    24   ar
    26    24    31    1
    27    31    32    1
    28    31    33    1
    29    31    34    1
    30     4     5   ar
    31     9    10   ar
    32    10    11   ar
    33    15    16    1
    34    16    13    1
    35    11     6   ar
    36     5     1   ar
    37    24    20   ar
    38    30    25   ar
@<TRIPOS>MOLECULE
*****
 34 38 0 0 0
SMALL
GASTEIGER

@<TRIPOS>ATOM
      1 C         139.5430  138.6599  157.9803 C.ar    1  UNL1        0.2037
      2 N         138.4320  139.5245  157.4624 N.ar    1  UNL1       -0.0555
      3 O         137.8270  140.2495  158.6278 O.2     1  UNL1       -0.3291
      4 C         138.5641  139.8329  159.8661 C.ar    1  UNL1        0.2973
      5 N         139.6246  138.8505  159.4659 N.ar    1  UNL1       -0.1843
      6 C         142.1698  135.9670  155.5108 C.ar    1  UNL1       -0.0061
      7 C         142.7449  136.7077  156.6815 C.ar    1  UNL1       -0.0028
      8 C         141.8693  137.6053  157.5046 C.ar    1  UNL1        0.0029
      9 C         140.4186  137.7622  157.1571 C.ar    1  UNL1        0.0391
     10 C         139.8434  137.0215  155.9864 C.ar    1  UNL1        0.0029
     11 C         140.7190  136.1239  155.1633 C.ar    1  UNL1       -0.0028
     12 C         143.0454  135.0693  154.6876 C.3     1  UNL1        0.0992
     13 C         143.8417  131.7392  155.8666 C.3     1  UNL1        0.0684
     14 C         143.0830  132.2980  154.6994 C.3     1  UNL1        0.0793
     15 N         143.3752  133.6899  155.1760 N.3     1  UNL1       -0.2682
     16 C         144.1339  133.1311  156.3431 C.3     1  UNL1        0.0793
     17 O         145.0923  129.4827  155.5594 O.co2   1  UNL1       -0.5491
     18 C         144.1716  130.3598  156.3550 C.2     1  UNL1        0.0527
     19 O         143.5807  129.8575  157.6389 O.co2   1  UNL1       -0.5491
     20 C         138.2890  140.3143  161.2599 C.ar    1  UNL1        0.2363
     21 O         137.3801  141.4459  161.6385 O.2     1  UNL1       -0.3486
     22 N         137.4039  141.5796  163.1323 N.ar    1  UNL1       -0.0768
     23 C         138.3274  140.5305  163.6770 C.ar    1  UNL1        0.1270
     24 C         138.8744  139.7486  162.5197 C.ar    1  UNL1        0.1340
     25 C         138.6476  140.3034  165.1246 C.ar    1  UNL1        0.0209
     26 C         139.6485  141.1797  165.8177 C.ar    1  UNL1        0.0016
     27 C         139.9688  140.9526  167.2655 C.ar    1  UNL1        0.0000
     28 C         139.2881  139.8493  168.0200 C.ar    1  UNL1        0.0000
     29 C         138.2872  138.9730  167.3269 C.ar    1  UNL1        0.0000
     30 C         137.9669  139.2001  165.8792 C.ar    1  UNL1        0.0016
     31 C         139.8377  138.6021  162.6070 C.3     1  UNL1        0.4232
     32 F         140.8011  137.4557  162.6942 F       1  UNL1       -0.1657
     33 F         138.6881  137.6398  162.6559 F       1  UNL1       -0.1657
     34 F         140.9873  139.5644  162.5581 F       1  UNL1       -0.1657
@<TRIPOS>UNITY_ATOM_ATTR
17 1
charge -1
@<TRIPOS>BOND
     1    17    18   ar
     2    18    19   ar
     3    18    13    1
     4    13    14    1
     5    14    15    1
     6    15    12    1
     7    12     6    1
     8     6     7   ar
     9     7     8   ar
    10     8     9   ar
    11     9     1    1
    12     1     2   ar
    13     2     3   ar
    14     3     4   ar
    15     4    20    1
    16    20    21   ar
    17    21    22   ar
    18    22    23   ar
    19    23    25    1
    20    25    26   ar
    21    26    27   ar
    22    27    28   ar
    23    28    29   ar
    24    29    30   ar
    25    23    24   ar
    26    24    31    1
    27    31    32    1
    28    31    33    1
    29    31    34    1
    30     4     5   ar
    31     9    10   ar
    32    10    11   ar
    33    15    16    1
    34    16    13    1
    35    11     6   ar
    36     5     1   ar
    37    24    20   ar
    38    30    25   ar
@<TRIPOS>MOLECULE
*****
 34 38 0 0 0
SMALL
GASTEIGER

@<TRIPOS>ATOM
      1 C         138.2741  140.3168  161.5367 C.ar    1  UNL1        0.2037
      2 N         137.2942  141.3736  161.9524 N.ar    1  UNL1       -0.0555
      3 O         137.2352  141.3873  163.4512 O.2     1  UNL1       -0.3291
      4 C         138.1787  140.3388  163.9617 C.ar    1  UNL1        0.2973
      5 N         138.8207  139.6772  162.7785 N.ar    1  UNL1       -0.1843
      6 C         139.3798  139.2518  157.3067 C.ar    1  UNL1       -0.0061
      7 C         139.8920  138.4229  158.4471 C.ar    1  UNL1       -0.0028
      8 C         139.5235  138.7779  159.8570 C.ar    1  UNL1        0.0029
      9 C         138.6426  139.9618  160.1266 C.ar    1  UNL1        0.0391
     10 C         138.1304  140.7906  158.9862 C.ar    1  UNL1        0.0029
     11 C         138.4989  140.4356  157.5762 C.ar    1  UNL1       -0.0028
     12 C         139.7483  138.8968  155.8966 C.3     1  UNL1        0.0992
     13 C         141.9098  136.0646  155.2483 C.3     1  UNL1        0.0684
     14 C         142.1277  137.5090  155.5893 C.3     1  UNL1        0.0793
     15 N         140.6436  137.7236  155.6281 N.3     1  UNL1       -0.2682
     16 C         140.4257  136.2792  155.2871 C.3     1  UNL1        0.0793
     17 O         143.9049  134.5515  155.9415 O.co2   1  UNL1       -0.5491
     18 C         142.8051  134.8913  154.9798 C.2     1  UNL1        0.0527
     19 O         142.6006  134.0580  153.7495 O.co2   1  UNL1       -0.5491
     20 C         138.4351  140.0098  165.4026 C.ar    1  UNL1        0.2363
     21 O         137.6760  139.0136  166.2281 O.2     1  UNL1       -0.3486
     22 N         138.2673  139.0073  167.6065 N.ar    1  UNL1       -0.0768
     23 C         139.3920  139.9995  167.6330 C.ar    1  UNL1        0.1270
     24 C         139.4956  140.6191  166.2709 C.ar    1  UNL1        0.1340
     25 C         140.2604  140.3165  168.8142 C.ar    1  UNL1        0.0209
     26 C         139.7778  141.2723  169.8648 C.ar    1  UNL1        0.0016
     27 C         140.6463  141.5893  171.0462 C.ar    1  UNL1        0.0000
     28 C         141.9971  140.9505  171.1768 C.ar    1  UNL1        0.0000
     29 C         142.4796  139.9948  170.1262 C.ar    1  UNL1        0.0000
     30 C         141.6113  139.6777  168.9449 C.ar    1  UNL1        0.0016
     31 C         140.4859  141.6644  165.8509 C.3     1  UNL1        0.4232
     32 F         141.4763  142.7098  165.4308 F       1  UNL1       -0.1657
     33 F         141.5140  140.5970  165.6182 F       1  UNL1       -0.1657
     34 F         139.4580  142.7317  166.0835 F       1  UNL1       -0.1657
@<TRIPOS>UNITY_ATOM_ATTR
17 1
charge -1
@<TRIPOS>BOND
     1    17    18   ar
     2    18    19   ar
     3    18    13    1
     4    13    14    1
     5    14    15    1
     6    15    12    1
     7    12     6    1
     8     6     7   ar
     9     7     8   ar
    10     8     9   ar
    11     9     1    1
    12     1     2   ar
    13     2     3   ar
    14     3     4   ar
    15     4    20    1
    16    20    21   ar
    17    21    22   ar
    18    22    23   ar
    19    23    25    1
    20    25    26   ar
    21    26    27   ar
    22    27    28   ar
    23    28    29   ar
    24    29    30   ar
    25    23    24   ar
    26    24    31    1
    27    31    32    1
    28    31    33    1
    29    31    34    1
    30     4     5   ar
    31     9    10   ar
    32    10    11   ar
    33    15    16    1
    34    16    13    1
    35    11     6   ar
    36     5     1   ar
    37    24    20   ar
    38    30    25   ar
@<TRIPOS>MOLECULE
*****
 34 38 0 0 0
SMALL
GASTEIGER

@<TRIPOS>ATOM
      1 C         143.2842  138.5942  160.1029 C.ar    1  UNL1        0.2037
      2 N         144.0159  139.3879  159.0615 N.ar    1  UNL1       -0.0555
      3 O         143.6003  138.8783  157.7133 O.2     1  UNL1       -0.3291
      4 C         142.6116  137.7695  157.9216 C.ar    1  UNL1        0.2973
      5 N         142.4163  137.5940  159.3984 N.ar    1  UNL1       -0.1843
      6 C         143.6318  139.1211  164.5584 C.ar    1  UNL1       -0.0061
      7 C         142.6155  138.1744  163.9922 C.ar    1  UNL1       -0.0028
      8 C         142.4996  137.9988  162.5071 C.ar    1  UNL1        0.0029
      9 C         143.4001  138.7699  161.5881 C.ar    1  UNL1        0.0391
     10 C         144.4165  139.7166  162.1543 C.ar    1  UNL1        0.0029
     11 C         144.5324  139.8922  163.6395 C.ar    1  UNL1       -0.0028
     12 C         143.7477  139.2968  166.0436 C.3     1  UNL1        0.0992
     13 C         140.7979  140.0151  168.0176 C.3     1  UNL1        0.0684
     14 C         142.1994  139.5776  168.3252 C.3     1  UNL1        0.0793
     15 N         142.5259  139.5943  166.8613 N.3     1  UNL1       -0.2682
     16 C         141.1245  140.0318  166.5537 C.3     1  UNL1        0.0793
     17 O         139.5495  141.5125  169.7349 O.co2   1  UNL1       -0.5491
     18 C         139.5760  140.3126  168.8353 C.2     1  UNL1        0.0527
     19 O         138.3807  139.4101  168.7532 O.co2   1  UNL1       -0.5491
     20 C         141.9368  136.9757  156.8425 C.ar    1  UNL1        0.2363
     21 O         140.7196  137.3927  156.0713 O.2     1  UNL1       -0.3486
     22 N         140.3912  136.3003  155.0973 N.ar    1  UNL1       -0.0768
     23 C         141.4054  135.2081  155.2665 C.ar    1  UNL1        0.1270
     24 C         142.3606  135.6256  156.3451 C.ar    1  UNL1        0.1340
     25 C         141.4556  133.9240  154.4929 C.ar    1  UNL1        0.0209
     26 C         141.7881  133.9421  153.0303 C.ar    1  UNL1        0.0016
     27 C         141.8382  132.6580  152.2566 C.ar    1  UNL1        0.0000
     28 C         141.5558  131.3559  152.9456 C.ar    1  UNL1        0.0000
     29 C         141.2234  131.3378  154.4081 C.ar    1  UNL1        0.0000
     30 C         141.1732  132.6218  155.1818 C.ar    1  UNL1        0.0016
     31 C         143.5337  134.8322  156.8394 C.3     1  UNL1        0.4232
     32 F         144.7068  134.0387  157.3338 F       1  UNL1       -0.1657
     33 F         144.3294  135.2633  155.6431 F       1  UNL1       -0.1657
     34 F         142.7380  134.4011  158.0357 F       1  UNL1       -0.1657
@<TRIPOS>UNITY_ATOM_ATTR
17 1
charge -1
@<TRIPOS>BOND
     1    17    18   ar
     2    18    19   ar
     3    18    13    1
     4    13    14    1
     5    14    15    1
     6    15    12    1
     7    12     6    1
     8     6     7   ar
     9     7     8   ar
    10     8     9   ar
    11     9     1    1
    12     1     2   ar
    13     2     3   ar
    14     3     4   ar
    15     4    20    1
    16    20    21   ar
    17    21    22   ar
    18    22    23   ar
    19    23    25    1
    20    25    26   ar
    21    26    27   ar
    22    27    28   ar
    23    28    29   ar
    24    29    30   ar
    25    23    24   ar
    26    24    31    1
    27    31    32    1
    28    31    33    1
    29    31    34    1
    30     4     5   ar
    31     9    10   ar
    32    10    11   ar
    33    15    16    1
    34    16    13    1
    35    11     6   ar
    36     5     1   ar
    37    24    20   ar
    38    30    25   ar
@<TRIPOS>MOLECULE
*****
 34 38 0 0 0
SMALL
GASTEIGER

@<TRIPOS>ATOM
      1 C         138.8374  139.0674  161.7020 C.ar    1  UNL1        0.2037
      2 N         139.4816  138.0192  160.8438 N.ar    1  UNL1       -0.0555
      3 O         139.4415  138.4953  159.4220 O.2     1  UNL1       -0.3291
      4 C         138.7725  139.8378  159.4014 C.ar    1  UNL1        0.2973
      5 N         138.3992  140.1913  160.8105 N.ar    1  UNL1       -0.1843
      6 C         138.3120  138.8739  166.1670 C.ar    1  UNL1       -0.0061
      7 C         138.7342  137.6511  165.4079 C.ar    1  UNL1       -0.0028
      8 C         138.9093  137.7156  163.9195 C.ar    1  UNL1        0.0029
      9 C         138.6623  139.0029  163.1904 C.ar    1  UNL1        0.0391
     10 C         138.2401  140.2258  163.9495 C.ar    1  UNL1        0.0029
     11 C         138.0650  140.1613  165.4378 C.ar    1  UNL1       -0.0028
     12 C         138.1368  138.8095  167.6554 C.3     1  UNL1        0.0992
     13 C         139.7030  141.2954  169.7722 C.3     1  UNL1        0.0684
     14 C         139.9439  140.7805  168.3841 C.3     1  UNL1        0.0793
     15 N         138.7855  139.8392  168.5322 N.3     1  UNL1       -0.2682
     16 C         138.5446  140.3541  169.9203 C.3     1  UNL1        0.0793
     17 O         140.5428  143.7254  170.1464 O.co2   1  UNL1       -0.5491
     18 C         140.3517  142.3252  170.6491 C.2     1  UNL1        0.0527
     19 O         140.8092  141.9546  172.0287 O.co2   1  UNL1       -0.5491
     20 C         138.5210  140.6790  158.1852 C.ar    1  UNL1        0.2363
     21 O         137.6106  140.3306  157.0451 O.2     1  UNL1       -0.3486
     22 N         137.6627  141.4525  156.0508 N.ar    1  UNL1       -0.0768
     23 C         138.6053  142.4943  156.5764 C.ar    1  UNL1        0.1270
     24 C         139.1358  142.0162  157.8955 C.ar    1  UNL1        0.1340
     25 C         138.9559  143.7871  155.9014 C.ar    1  UNL1        0.0209
     26 C         137.8805  144.7846  155.5869 C.ar    1  UNL1        0.0016
     27 C         138.2311  146.0775  154.9118 C.ar    1  UNL1        0.0000
     28 C         139.6568  146.3728  154.5513 C.ar    1  UNL1        0.0000
     29 C         140.7321  145.3753  154.8658 C.ar    1  UNL1        0.0000
     30 C         140.3816  144.0825  155.5408 C.ar    1  UNL1        0.0016
     31 C         140.1099  142.7470  158.7712 C.3     1  UNL1        0.4232
     32 F         141.0842  143.4778  159.6469 F       1  UNL1       -0.1657
     33 F         141.2115  141.8451  158.2985 F       1  UNL1       -0.1657
     34 F         139.0085  143.6488  159.2438 F       1  UNL1       -0.1657
@<TRIPOS>UNITY_ATOM_ATTR
17 1
charge -1
@<TRIPOS>BOND
     1    17    18   ar
     2    18    19   ar
     3    18    13    1
     4    13    14    1
     5    14    15    1
     6    15    12    1
     7    12     6    1
     8     6     7   ar
     9     7     8   ar
    10     8     9   ar
    11     9     1    1
    12     1     2   ar
    13     2     3   ar
    14     3     4   ar
    15     4    20    1
    16    20    21   ar
    17    21    22   ar
    18    22    23   ar
    19    23    25    1
    20    25    26   ar
    21    26    27   ar
    22    27    28   ar
    23    28    29   ar
    24    29    30   ar
    25    23    24   ar
    26    24    31    1
    27    31    32    1
    28    31    33    1
    29    31    34    1
    30     4     5   ar
    31     9    10   ar
    32    10    11   ar
    33    15    16    1
    34    16    13    1
    35    11     6   ar
    36     5     1   ar
    37    24    20   ar
    38    30    25   ar
@<TRIPOS>MOLECULE
*****
 34 38 0 0 0
SMALL
GASTEIGER

@<TRIPOS>ATOM
      1 C         140.9406  139.6626  160.3726 C.ar    1  UNL1        0.2037
      2 N         140.3119  141.0237  160.4169 N.ar    1  UNL1       -0.0555
      3 O         140.4081  141.5332  161.8244 O.2     1  UNL1       -0.3291
      4 C         141.0964  140.4869  162.6500 C.ar    1  UNL1        0.2973
      5 N         141.4255  139.3308  161.7527 N.ar    1  UNL1       -0.1843
      6 C         141.3078  137.0357  156.7374 C.ar    1  UNL1       -0.0061
      7 C         139.9813  137.6360  157.0981 C.ar    1  UNL1       -0.0028
      8 C         139.8589  138.5115  158.3098 C.ar    1  UNL1        0.0029
      9 C         141.0630  138.7869  159.1608 C.ar    1  UNL1        0.0391
     10 C         142.3895  138.1867  158.8001 C.ar    1  UNL1        0.0029
     11 C         142.5119  137.3111  157.5884 C.ar    1  UNL1       -0.0028
     12 C         141.4302  136.1601  155.5256 C.3     1  UNL1        0.0992
     13 C         142.4935  132.7166  155.8799 C.3     1  UNL1        0.0684
     14 C         143.0664  134.0485  156.2644 C.3     1  UNL1        0.0793
     15 N         141.8706  134.7338  155.6723 N.3     1  UNL1       -0.2682
     16 C         141.2977  133.4019  155.2878 C.3     1  UNL1        0.0793
     17 O         143.1911  130.4554  154.8072 O.co2   1  UNL1       -0.5491
     18 C         142.9339  131.2902  156.0266 C.2     1  UNL1        0.0527
     19 O         143.1172  130.6987  157.3928 O.co2   1  UNL1       -0.5491
     20 C         141.4019  140.5803  164.1156 C.ar    1  UNL1        0.2363
     21 O         142.6909  140.1874  164.7744 O.2     1  UNL1       -0.3486
     22 N         142.5577  140.4473  166.2456 N.ar    1  UNL1       -0.0768
     23 C         141.1862  141.0008  166.4962 C.ar    1  UNL1        0.1270
     24 C         140.4720  141.0830  165.1798 C.ar    1  UNL1        0.1340
     25 C         140.6274  141.4017  167.8292 C.ar    1  UNL1        0.0209
     26 C         139.8389  140.4155  168.6391 C.ar    1  UNL1        0.0016
     27 C         139.2800  140.8164  169.9722 C.ar    1  UNL1        0.0000
     28 C         139.5095  142.2034  170.4952 C.ar    1  UNL1        0.0000
     29 C         140.2980  143.1895  169.6853 C.ar    1  UNL1        0.0000
     30 C         140.8569  142.7887  168.3523 C.ar    1  UNL1        0.0016
     31 C         139.0733  141.5806  164.9653 C.3     1  UNL1        0.4232
     32 F         137.6745  142.0781  164.7507 F       1  UNL1       -0.1657
     33 F         139.6073  142.9471  164.6528 F       1  UNL1       -0.1657
     34 F         138.5393  140.2141  165.2777 F       1  UNL1       -0.1657
@<TRIPOS>UNITY_ATOM_ATTR
17 1
charge -1
@<TRIPOS>BOND
     1    17    18   ar
     2    18    19   ar
     3    18    13    1
     4    13    14    1
     5    14    15    1
     6    15    12    1
     7    12     6    1
     8     6     7   ar
     9     7     8   ar
    10     8     9   ar
    11     9     1    1
    12     1     2   ar
    13     2     3   ar
    14     3     4   ar
    15     4    20    1
    16    20    21   ar
    17    21    22   ar
    18    22    23   ar
    19    23    25    1
    20    25    26   ar
    21    26    27   ar
    22    27    28   ar
    23    28    29   ar
    24    29    30   ar
    25    23    24   ar
    26    24    31    1
    27    31    32    1
    28    31    33    1
    29    31    34    1
    30     4     5   ar
    31     9    10   ar
    32    10    11   ar
    33    15    16    1
    34    16    13    1
    35    11     6   ar
    36     5     1   ar
    37    24    20   ar
    38    30    25   ar
@<TRIPOS>MOLECULE
*****
 34 38 0 0 0
SMALL
GASTEIGER

@<TRIPOS>ATOM
      1 C         143.3291  140.5844  159.7934 C.ar    1  UNL1        0.2037
      2 N         144.0830  141.8812  159.8085 N.ar    1  UNL1       -0.0555
      3 O         143.8900  142.5140  161.1547 O.2     1  UNL1       -0.3291
      4 C         143.0169  141.6082  161.9717 C.ar    1  UNL1        0.2973
      5 N         142.6703  140.4158  161.1303 N.ar    1  UNL1       -0.1843
      6 C         143.0869  137.7058  156.3431 C.ar    1  UNL1       -0.0061
      7 C         143.6294  139.0879  156.1300 C.ar    1  UNL1       -0.0028
      8 C         143.7102  140.0474  157.2801 C.ar    1  UNL1        0.0029
      9 C         143.2484  139.6248  158.6433 C.ar    1  UNL1        0.0391
     10 C         142.7059  138.2427  158.8563 C.ar    1  UNL1        0.0029
     11 C         142.6251  137.2832  157.7062 C.ar    1  UNL1       -0.0028
     12 C         143.0062  136.7462  155.1930 C.3     1  UNL1        0.0992
     13 C         142.5415  133.2092  155.8151 C.3     1  UNL1        0.0684
     14 C         141.6565  134.3311  155.3591 C.3     1  UNL1        0.0793
     15 N         142.8137  135.2811  155.4507 N.3     1  UNL1       -0.2682
     16 C         143.6987  134.1592  155.9067 C.3     1  UNL1        0.0793
     17 O         143.0656  131.0825  157.2126 O.co2   1  UNL1       -0.5491
     18 C         142.3491  131.7440  156.0729 C.2     1  UNL1        0.0527
     19 O         141.4401  130.9404  155.1908 O.co2   1  UNL1       -0.5491
     20 C         142.5690  141.8522  163.3823 C.ar    1  UNL1        0.2363
     21 O         141.4843  142.7948  163.8125 O.2     1  UNL1       -0.3486
     22 N         141.3722  142.7216  165.3065 N.ar    1  UNL1       -0.0768
     23 C         142.3875  141.7337  165.7997 C.ar    1  UNL1        0.1270
     24 C         143.1272  141.1965  164.6105 C.ar    1  UNL1        0.1340
     25 C         142.6219  141.3505  167.2308 C.ar    1  UNL1        0.0209
     26 C         143.2403  142.3347  168.1790 C.ar    1  UNL1        0.0016
     27 C         143.4748  141.9515  169.6103 C.ar    1  UNL1        0.0000
     28 C         143.0909  140.5842  170.0931 C.ar    1  UNL1        0.0000
     29 C         142.4725  139.6001  169.1448 C.ar    1  UNL1        0.0000
     30 C         142.2380  139.9833  167.7137 C.ar    1  UNL1        0.0016
     31 C         144.2312  140.1816  164.6436 C.3     1  UNL1        0.4232
     32 F         145.3353  139.1666  164.6768 F       1  UNL1       -0.1657
     33 F         145.2467  141.2847  164.5976 F       1  UNL1       -0.1657
     34 F         143.2158  139.0785  164.6896 F       1  UNL1       -0.1657
@<TRIPOS>UNITY_ATOM_ATTR
17 1
charge -1
@<TRIPOS>BOND
     1    17    18   ar
     2    18    19   ar
     3    18    13    1
     4    13    14    1
     5    14    15    1
     6    15    12    1
     7    12     6    1
     8     6     7   ar
     9     7     8   ar
    10     8     9   ar
    11     9     1    1
    12     1     2   ar
    13     2     3   ar
    14     3     4   ar
    15     4    20    1
    16    20    21   ar
    17    21    22   ar
    18    22    23   ar
    19    23    25    1
    20    25    26   ar
    21    26    27   ar
    22    27    28   ar
    23    28    29   ar
    24    29    30   ar
    25    23    24   ar
    26    24    31    1
    27    31    32    1
    28    31    33    1
    29    31    34    1
    30     4     5   ar
    31     9    10   ar
    32    10    11   ar
    33    15    16    1
    34    16    13    1
    35    11     6   ar
    36     5     1   ar
    37    24    20   ar
    38    30    25   ar
