@<TRIPOS>MOLECULE
*****
 31 35 0 0 0
SMALL
GASTEIGER

@<TRIPOS>ATOM
      1 C         142.3933  143.1725  161.0670 C.3     1  UNL1        0.0867
      2 C         142.0309  141.7175  161.0288 C.3     1  UNL1        0.0240
      3 C         142.8976  140.7102  161.7246 C.3     1  UNL1        0.0176
      4 C         144.1267  141.1579  162.4586 C.3     1  UNL1        0.0541
      5 C         144.4892  142.6129  162.4968 C.3     1  UNL1        0.0176
      6 C         143.6225  143.6202  161.8010 C.3     1  UNL1        0.0240
      7 C         140.0131  144.9310  162.4424 C.3     1  UNL1        0.0718
      8 C         140.4325  144.9881  161.0034 C.ar    1  UNL1        0.1207
      9 N         139.8316  145.8635  159.9439 N.ar    1  UNL1       -0.2309
     10 C         140.5542  145.5962  158.6569 C.ar    1  UNL1        0.1006
     11 C         140.3937  146.1660  157.2786 C.ar    1  UNL1        0.0502
     12 C         141.2807  145.6951  156.1645 C.ar    1  UNL1        0.1417
     13 F         141.1202  146.2649  154.7862 F       1  UNL1       -0.2041
     14 C         142.3283  144.6545  156.4286 C.ar    1  UNL1        0.0312
     15 C         142.4888  144.0848  157.8068 C.ar    1  UNL1        0.0211
     16 C         141.6018  144.5556  158.9210 C.ar    1  UNL1        0.0787
     17 N         141.5266  144.1798  160.3712 N.ar    1  UNL1       -0.3168
     18 N         144.9934  140.1505  163.1544 N.3     1  UNL1       -0.2985
     19 H         145.7504  140.6702  163.5986 H       1  UNL1        0.1232
     20 C         144.4073  139.2557  164.2059 C.3     1  UNL1        0.0692
     21 C         143.5103  139.8284  165.2631 C.3     1  UNL1        0.0244
     22 C         142.4492  139.0833  166.0173 C.3     1  UNL1        0.0277
     23 C         141.8001  140.0410  166.9719 C.ar    1  UNL1       -0.0260
     24 C         140.6933  139.8684  167.9696 C.ar    1  UNL1       -0.0039
     25 C         140.2465  141.0327  168.8030 C.ar    1  UNL1        0.0099
     26 C         140.9064  142.3697  168.6388 C.ar    1  UNL1        0.0681
     27 C         142.0132  142.5423  167.6412 C.ar    1  UNL1        0.0057
     28 C         142.4600  141.3779  166.8078 C.ar    1  UNL1       -0.0254
     29 C         143.5170  141.2465  165.7516 C.3     1  UNL1        0.0278
     30 C         140.4596  143.5340  169.4722 C.1     1  UNL1        0.1004
     31 N         140.0128  144.6984  170.3057 N.1     1  UNL1       -0.1908
@<TRIPOS>BOND
     1     7     8    1
     2     8     9   ar
     3     9    10   ar
     4    10    11   ar
     5    11    12   ar
     6    12    13    1
     7    12    14   ar
     8    14    15   ar
     9    15    16   ar
    10    16    17   ar
    11     1    17    1
    12     1     2    1
    13     2     3    1
    14     3     4    1
    15     4    18    1
    16    18    20    1
    17    21    20    1
    18    21    22    1
    19    22    23    1
    20    23    24   ar
    21    24    25   ar
    22    25    26   ar
    23    26    30    1
    24    30    31    3
    25    26    27   ar
    26    27    28   ar
    27    28    29    1
    28     4     5    1
    29     5     6    1
    30    17     8   ar
    31     6     1    1
    32    16    10   ar
    33    29    21    1
    34    28    23   ar
    35    18    19    1
@<TRIPOS>MOLECULE
*****
 31 35 0 0 0
SMALL
GASTEIGER

@<TRIPOS>ATOM
      1 C         140.0195  139.1294  159.7476 C.3     1  UNL1        0.0867
      2 C         139.8219  140.6162  159.7562 C.3     1  UNL1        0.0240
      3 C         138.7904  141.2305  160.6555 C.3     1  UNL1        0.0176
      4 C         137.9565  140.3580  161.5462 C.3     1  UNL1        0.0541
      5 C         138.1541  138.8711  161.5375 C.3     1  UNL1        0.0176
      6 C         139.1856  138.2567  160.6383 C.3     1  UNL1        0.0240
      7 C         143.2312  139.0096  160.3136 C.3     1  UNL1        0.0718
      8 C         142.5272  138.4600  159.1085 C.ar    1  UNL1        0.1207
      9 N         143.1759  137.7588  157.9519 N.ar    1  UNL1       -0.2309
     10 C         142.1005  137.3805  156.9770 C.ar    1  UNL1        0.1006
     11 C         142.1475  136.6709  155.6563 C.ar    1  UNL1        0.0502
     12 C         140.8813  136.4286  154.8897 C.ar    1  UNL1        0.1417
     13 F         140.9282  135.7189  153.5690 F       1  UNL1       -0.2041
     14 C         139.5680  136.8960  155.4437 C.ar    1  UNL1        0.0312
     15 C         139.5210  137.6056  156.7643 C.ar    1  UNL1        0.0211
     16 C         140.7873  137.8479  157.5310 C.ar    1  UNL1        0.0787
     17 N         141.0510  138.5150  158.8483 N.ar    1  UNL1       -0.3168
     18 N         136.9251  140.9723  162.4454 N.3     1  UNL1       -0.2985
     19 H         136.5531  140.2193  163.0243 H       1  UNL1        0.1232
     20 C         137.3081  142.0849  163.3757 C.3     1  UNL1        0.0692
     21 C         138.2961  141.8355  164.4764 C.3     1  UNL1        0.0244
     22 C         138.4656  140.5527  165.2351 C.3     1  UNL1        0.0277
     23 C         139.5623  140.7495  166.2392 C.ar    1  UNL1       -0.0260
     24 C         140.1638  139.8312  167.2615 C.ar    1  UNL1       -0.0039
     25 C         141.2736  140.3174  168.1457 C.ar    1  UNL1        0.0099
     26 C         141.7821  141.7218  168.0076 C.ar    1  UNL1        0.0681
     27 C         141.1807  142.6401  166.9853 C.ar    1  UNL1        0.0057
     28 C         140.0707  142.1538  166.1011 C.ar    1  UNL1       -0.0254
     29 C         139.2882  142.8251  165.0116 C.3     1  UNL1        0.0278
     30 C         142.8920  142.2080  168.8918 C.1     1  UNL1        0.1004
     31 N         144.0018  142.6942  169.7760 N.1     1  UNL1       -0.1908
@<TRIPOS>BOND
     1     7     8    1
     2     8     9   ar
     3     9    10   ar
     4    10    11   ar
     5    11    12   ar
     6    12    13    1
     7    12    14   ar
     8    14    15   ar
     9    15    16   ar
    10    16    17   ar
    11     1    17    1
    12     1     2    1
    13     2     3    1
    14     3     4    1
    15     4    18    1
    16    18    20    1
    17    21    20    1
    18    21    22    1
    19    22    23    1
    20    23    24   ar
    21    24    25   ar
    22    25    26   ar
    23    26    30    1
    24    30    31    3
    25    26    27   ar
    26    27    28   ar
    27    28    29    1
    28     4     5    1
    29     5     6    1
    30    17     8   ar
    31     6     1    1
    32    16    10   ar
    33    29    21    1
    34    28    23   ar
    35    18    19    1
@<TRIPOS>MOLECULE
*****
 31 35 0 0 0
SMALL
GASTEIGER

@<TRIPOS>ATOM
      1 C         139.7296  142.2019  160.7695 C.3     1  UNL1        0.0867
      2 C         140.5477  140.9447  160.7804 C.3     1  UNL1        0.0240
      3 C         140.0124  139.7071  161.4376 C.3     1  UNL1        0.0176
      4 C         138.6590  139.7267  162.0840 C.3     1  UNL1        0.0541
      5 C         137.8409  140.9839  162.0732 C.3     1  UNL1        0.0176
      6 C         138.3761  142.2215  161.4160 C.3     1  UNL1        0.0240
      7 C         141.7683  144.3625  162.1205 C.3     1  UNL1        0.0718
      8 C         141.2020  144.4325  160.7333 C.ar    1  UNL1        0.1207
      9 N         141.4733  145.5080  159.7235 N.ar    1  UNL1       -0.2309
     10 C         140.7039  145.1796  158.4784 C.ar    1  UNL1        0.1006
     11 C         140.5869  145.8795  157.1569 C.ar    1  UNL1        0.0502
     12 C         139.7230  145.3009  156.0757 C.ar    1  UNL1        0.1417
     13 F         139.6060  146.0008  154.7541 F       1  UNL1       -0.2041
     14 C         138.9762  144.0224  156.3161 C.ar    1  UNL1        0.0312
     15 C         139.0932  143.3225  157.6376 C.ar    1  UNL1        0.0211
     16 C         139.9571  143.9011  158.7187 C.ar    1  UNL1        0.0787
     17 N         140.2649  143.4394  160.1123 N.ar    1  UNL1       -0.3168
     18 N         138.1237  138.4892  162.7412 N.3     1  UNL1       -0.2985
     19 H         137.8834  137.8389  161.9930 H       1  UNL1        0.1232
     20 C         138.9735  137.7311  163.7175 C.3     1  UNL1        0.0692
     21 C         139.5593  138.4343  164.9060 C.3     1  UNL1        0.0244
     22 C         141.0138  138.7245  165.1300 C.3     1  UNL1        0.0277
     23 C         141.1469  139.4403  166.4414 C.ar    1  UNL1       -0.0260
     24 C         142.3404  139.9732  167.1773 C.ar    1  UNL1       -0.0039
     25 C         142.1617  140.6583  168.4997 C.ar    1  UNL1        0.0099
     26 C         140.7895  140.8105  169.0862 C.ar    1  UNL1        0.0681
     27 C         139.5960  140.2776  168.3503 C.ar    1  UNL1        0.0057
     28 C         139.7748  139.5925  167.0278 C.ar    1  UNL1       -0.0254
     29 C         138.7936  138.9707  166.0788 C.3     1  UNL1        0.0278
     30 C         140.6108  141.4956  170.4086 C.1     1  UNL1        0.1004
     31 N         140.4321  142.1807  171.7310 N.1     1  UNL1       -0.1908
@<TRIPOS>BOND
     1     7     8    1
     2     8     9   ar
     3     9    10   ar
     4    10    11   ar
     5    11    12   ar
     6    12    13    1
     7    12    14   ar
     8    14    15   ar
     9    15    16   ar
    10    16    17   ar
    11     1    17    1
    12     1     2    1
    13     2     3    1
    14     3     4    1
    15     4    18    1
    16    18    20    1
    17    21    20    1
    18    21    22    1
    19    22    23    1
    20    23    24   ar
    21    24    25   ar
    22    25    26   ar
    23    26    30    1
    24    30    31    3
    25    26    27   ar
    26    27    28   ar
    27    28    29    1
    28     4     5    1
    29     5     6    1
    30    17     8   ar
    31     6     1    1
    32    16    10   ar
    33    29    21    1
    34    28    23   ar
    35    18    19    1
@<TRIPOS>MOLECULE
*****
 31 35 0 0 0
SMALL
GASTEIGER

@<TRIPOS>ATOM
      1 C         142.4487  138.4656  158.8819 C.3     1  UNL1        0.0867
      2 C         142.7784  137.6747  160.1130 C.3     1  UNL1        0.0240
      3 C         143.6065  138.2913  161.2012 C.3     1  UNL1        0.0176
      4 C         144.1049  139.6988  161.0582 C.3     1  UNL1        0.0541
      5 C         143.7752  140.4898  159.8271 C.3     1  UNL1        0.0176
      6 C         142.9471  139.8732  158.7389 C.3     1  UNL1        0.0240
      7 C         139.2995  139.0800  158.2862 C.3     1  UNL1        0.0718
      8 C         140.1731  138.1314  157.5199 C.ar    1  UNL1        0.1207
      9 N         139.7526  137.2988  156.3453 N.ar    1  UNL1       -0.2309
     10 C         140.9402  136.5018  155.8931 C.ar    1  UNL1        0.1006
     11 C         141.1194  135.5103  154.7819 C.ar    1  UNL1        0.0502
     12 C         142.4532  134.8589  154.5659 C.ar    1  UNL1        0.1417
     13 F         142.6325  133.8674  153.4547 F       1  UNL1       -0.2041
     14 C         143.6077  135.1990  155.4611 C.ar    1  UNL1        0.0312
     15 C         143.4285  136.1905  156.5723 C.ar    1  UNL1        0.0211
     16 C         142.0947  136.8419  156.7883 C.ar    1  UNL1        0.0787
     17 N         141.6206  137.8491  157.7937 N.ar    1  UNL1       -0.3168
     18 N         144.9330  140.3153  162.1464 N.3     1  UNL1       -0.2985
     19 H         145.7901  140.6532  161.7087 H       1  UNL1        0.1232
     20 C         144.3825  141.4525  162.9549 C.3     1  UNL1        0.0692
     21 C         143.9098  141.2149  164.3586 C.3     1  UNL1        0.0244
     22 C         143.6055  139.8805  164.9724 C.3     1  UNL1        0.0277
     23 C         143.1660  140.1108  166.3879 C.ar    1  UNL1       -0.0260
     24 C         142.7403  139.1666  167.4729 C.ar    1  UNL1       -0.0039
     25 C         142.3474  139.6992  168.8190 C.ar    1  UNL1        0.0099
     26 C         142.3801  141.1759  169.0801 C.ar    1  UNL1        0.0681
     27 C         142.8058  142.1201  167.9951 C.ar    1  UNL1        0.0057
     28 C         143.1988  141.5875  166.6490 C.ar    1  UNL1       -0.0254
     29 C         143.6585  142.2699  165.3948 C.3     1  UNL1        0.0278
     30 C         141.9872  141.7084  170.4262 C.1     1  UNL1        0.1004
     31 N         141.5942  142.2410  171.7723 N.1     1  UNL1       -0.1908
@<TRIPOS>BOND
     1     7     8    1
     2     8     9   ar
     3     9    10   ar
     4    10    11   ar
     5    11    12   ar
     6    12    13    1
     7    12    14   ar
     8    14    15   ar
     9    15    16   ar
    10    16    17   ar
    11     1    17    1
    12     1     2    1
    13     2     3    1
    14     3     4    1
    15     4    18    1
    16    18    20    1
    17    21    20    1
    18    21    22    1
    19    22    23    1
    20    23    24   ar
    21    24    25   ar
    22    25    26   ar
    23    26    30    1
    24    30    31    3
    25    26    27   ar
    26    27    28   ar
    27    28    29    1
    28     4     5    1
    29     5     6    1
    30    17     8   ar
    31     6     1    1
    32    16    10   ar
    33    29    21    1
    34    28    23   ar
    35    18    19    1
@<TRIPOS>MOLECULE
*****
 31 35 0 0 0
SMALL
GASTEIGER

@<TRIPOS>ATOM
      1 C         139.5564  142.0671  161.6267 C.3     1  UNL1        0.0867
      2 C         138.2435  141.6640  162.2296 C.3     1  UNL1        0.0240
      3 C         138.0852  140.3036  162.8415 C.3     1  UNL1        0.0176
      4 C         139.2400  139.3463  162.8503 C.3     1  UNL1        0.0541
      5 C         140.5529  139.7493  162.2473 C.3     1  UNL1        0.0176
      6 C         140.7112  141.1097  161.6355 C.3     1  UNL1        0.0240
      7 C         139.2959  144.9174  163.1943 C.3     1  UNL1        0.0718
      8 C         139.5949  144.7376  161.7354 C.ar    1  UNL1        0.1207
      9 N         139.8266  145.8364  160.7409 N.ar    1  UNL1       -0.2309
     10 C         140.0896  145.2053  159.4057 C.ar    1  UNL1        0.1006
     11 C         140.3831  145.7940  158.0577 C.ar    1  UNL1        0.0502
     12 C         140.6074  144.8938  156.8790 C.ar    1  UNL1        0.1417
     13 F         140.9010  145.4825  155.5309 F       1  UNL1       -0.2041
     14 C         140.5382  143.4050  157.0483 C.ar    1  UNL1        0.0312
     15 C         140.2446  142.8164  158.3963 C.ar    1  UNL1        0.0211
     16 C         140.0203  143.7165  159.5751 C.ar    1  UNL1        0.0787
     17 N         139.7146  143.4275  161.0149 N.ar    1  UNL1       -0.3168
     18 N         139.0817  137.9859  163.4621 N.3     1  UNL1       -0.2985
     19 H         139.9670  137.4976  163.3273 H       1  UNL1        0.1232
     20 C         138.7307  137.8529  164.9144 C.3     1  UNL1        0.0692
     21 C         139.3981  138.7313  165.9308 C.3     1  UNL1        0.0244
     22 C         138.7352  139.3701  167.1150 C.3     1  UNL1        0.0277
     23 C         139.7728  140.1588  167.8575 C.ar    1  UNL1       -0.0260
     24 C         139.6986  140.9953  169.1004 C.ar    1  UNL1       -0.0039
     25 C         140.9286  141.6804  169.6179 C.ar    1  UNL1        0.0099
     26 C         142.2327  141.5290  168.8925 C.ar    1  UNL1        0.0681
     27 C         142.3070  140.6926  167.6496 C.ar    1  UNL1        0.0057
     28 C         141.0769  140.0075  167.1321 C.ar    1  UNL1       -0.0254
     29 C         140.8453  139.1252  165.9413 C.3     1  UNL1        0.0278
     30 C         143.4627  142.2141  169.4100 C.1     1  UNL1        0.1004
     31 N         144.6927  142.8992  169.9275 N.1     1  UNL1       -0.1908
@<TRIPOS>BOND
     1     7     8    1
     2     8     9   ar
     3     9    10   ar
     4    10    11   ar
     5    11    12   ar
     6    12    13    1
     7    12    14   ar
     8    14    15   ar
     9    15    16   ar
    10    16    17   ar
    11     1    17    1
    12     1     2    1
    13     2     3    1
    14     3     4    1
    15     4    18    1
    16    18    20    1
    17    21    20    1
    18    21    22    1
    19    22    23    1
    20    23    24   ar
    21    24    25   ar
    22    25    26   ar
    23    26    30    1
    24    30    31    3
    25    26    27   ar
    26    27    28   ar
    27    28    29    1
    28     4     5    1
    29     5     6    1
    30    17     8   ar
    31     6     1    1
    32    16    10   ar
    33    29    21    1
    34    28    23   ar
    35    18    19    1
@<TRIPOS>MOLECULE
*****
 31 35 0 0 0
SMALL
GASTEIGER

@<TRIPOS>ATOM
      1 C         142.6863  143.8036  161.4515 C.3     1  UNL1        0.0867
      2 C         143.2858  142.5516  160.8834 C.3     1  UNL1        0.0240
      3 C         144.3475  141.8155  161.6456 C.3     1  UNL1        0.0176
      4 C         144.8098  142.3316  162.9760 C.3     1  UNL1        0.0541
      5 C         144.2103  143.5837  163.5442 C.3     1  UNL1        0.0176
      6 C         143.1486  144.3197  162.7820 C.3     1  UNL1        0.0240
      7 C         139.9854  145.1275  162.7172 C.3     1  UNL1        0.0718
      8 C         140.3831  145.1482  161.2711 C.ar    1  UNL1        0.1207
      9 N         139.6093  145.7811  160.1528 N.ar    1  UNL1       -0.2309
     10 C         140.3724  145.5637  158.8798 C.ar    1  UNL1        0.1006
     11 C         140.0940  145.9652  157.4617 C.ar    1  UNL1        0.0502
     12 C         141.0612  145.5995  156.3751 C.ar    1  UNL1        0.1417
     13 F         140.7829  146.0010  154.9568 F       1  UNL1       -0.2041
     14 C         142.3068  144.8323  156.7067 C.ar    1  UNL1        0.0312
     15 C         142.5852  144.4307  158.1248 C.ar    1  UNL1        0.0211
     16 C         141.6180  144.7964  159.2114 C.ar    1  UNL1        0.0787
     17 N         141.6246  144.5397  160.6893 N.ar    1  UNL1       -0.3168
     18 N         145.8715  141.5955  163.7382 N.3     1  UNL1       -0.2985
     19 H         146.0648  142.1428  164.5770 H       1  UNL1        0.1232
     20 C         145.6305  140.1849  164.1876 C.3     1  UNL1        0.0692
     21 C         144.2279  139.6848  164.3690 C.3     1  UNL1        0.0244
     22 C         143.4655  138.8282  163.4021 C.3     1  UNL1        0.0277
     23 C         142.1080  138.5675  163.9845 C.ar    1  UNL1       -0.0260
     24 C         140.9316  137.7867  163.4781 C.ar    1  UNL1       -0.0039
     25 C         139.6788  137.7013  164.2984 C.ar    1  UNL1        0.0099
     26 C         139.6023  138.3968  165.6253 C.ar    1  UNL1        0.0681
     27 C         140.7786  139.1776  166.1317 C.ar    1  UNL1        0.0057
     28 C         142.0315  139.2630  165.3113 C.ar    1  UNL1       -0.0254
     29 C         143.3417  139.9535  165.5489 C.3     1  UNL1        0.0278
     30 C         138.3494  138.3114  166.4457 C.1     1  UNL1        0.1004
     31 N         137.0965  138.2261  167.2660 N.1     1  UNL1       -0.1908
@<TRIPOS>BOND
     1     7     8    1
     2     8     9   ar
     3     9    10   ar
     4    10    11   ar
     5    11    12   ar
     6    12    13    1
     7    12    14   ar
     8    14    15   ar
     9    15    16   ar
    10    16    17   ar
    11     1    17    1
    12     1     2    1
    13     2     3    1
    14     3     4    1
    15     4    18    1
    16    18    20    1
    17    21    20    1
    18    21    22    1
    19    22    23    1
    20    23    24   ar
    21    24    25   ar
    22    25    26   ar
    23    26    30    1
    24    30    31    3
    25    26    27   ar
    26    27    28   ar
    27    28    29    1
    28     4     5    1
    29     5     6    1
    30    17     8   ar
    31     6     1    1
    32    16    10   ar
    33    29    21    1
    34    28    23   ar
    35    18    19    1
@<TRIPOS>MOLECULE
*****
 31 35 0 0 0
SMALL
GASTEIGER

@<TRIPOS>ATOM
      1 C         141.5054  138.8800  159.0850 C.3     1  UNL1        0.0867
      2 C         140.0865  139.2525  158.7729 C.3     1  UNL1        0.0240
      3 C         139.0333  139.1521  159.8362 C.3     1  UNL1        0.0176
      4 C         139.3991  138.6791  161.2118 C.3     1  UNL1        0.0541
      5 C         140.8182  138.3065  161.5241 C.3     1  UNL1        0.0176
      6 C         141.8713  138.4069  160.4607 C.3     1  UNL1        0.0240
      7 C         142.0728  136.6888  156.7342 C.3     1  UNL1        0.0718
      8 C         142.8194  137.9733  156.9411 C.ar    1  UNL1        0.1207
      9 N         143.9579  138.4761  156.1038 N.ar    1  UNL1       -0.2309
     10 C         144.4007  139.7940  156.6669 C.ar    1  UNL1        0.1006
     11 C         145.4796  140.7505  156.2535 C.ar    1  UNL1        0.0502
     12 C         145.6938  142.0187  157.0253 C.ar    1  UNL1        0.1417
     13 F         146.7727  142.9753  156.6119 F       1  UNL1       -0.2041
     14 C         144.8290  142.3304  158.2106 C.ar    1  UNL1        0.0312
     15 C         143.7500  141.3739  158.6241 C.ar    1  UNL1        0.0211
     16 C         143.5359  140.1057  157.8522 C.ar    1  UNL1        0.0787
     17 N         142.5586  138.9804  158.0217 N.ar    1  UNL1       -0.3168
     18 N         138.3459  138.5786  162.2752 N.3     1  UNL1       -0.2985
     19 H         137.6069  137.9827  161.9023 H       1  UNL1        0.1232
     20 C         138.6967  138.0374  163.6295 C.3     1  UNL1        0.0692
     21 C         139.0850  138.9749  164.7342 C.3     1  UNL1        0.0244
     22 C         139.6607  140.3493  164.5626 C.3     1  UNL1        0.0277
     23 C         139.8973  140.9264  165.9267 C.ar    1  UNL1       -0.0260
     24 C         140.4483  142.2472  166.3760 C.ar    1  UNL1       -0.0039
     25 C         140.5698  142.5502  167.8401 C.ar    1  UNL1        0.0099
     26 C         140.1404  141.5324  168.8548 C.ar    1  UNL1        0.0681
     27 C         139.5894  140.2116  168.4055 C.ar    1  UNL1        0.0057
     28 C         139.4678  139.9087  166.9414 C.ar    1  UNL1       -0.0254
     29 C         138.9658  138.7025  166.2044 C.3     1  UNL1        0.0278
     30 C         140.2619  141.8354  170.3188 C.1     1  UNL1        0.1004
     31 N         140.3835  142.1385  171.7829 N.1     1  UNL1       -0.1908
@<TRIPOS>BOND
     1     7     8    1
     2     8     9   ar
     3     9    10   ar
     4    10    11   ar
     5    11    12   ar
     6    12    13    1
     7    12    14   ar
     8    14    15   ar
     9    15    16   ar
    10    16    17   ar
    11     1    17    1
    12     1     2    1
    13     2     3    1
    14     3     4    1
    15     4    18    1
    16    18    20    1
    17    21    20    1
    18    21    22    1
    19    22    23    1
    20    23    24   ar
    21    24    25   ar
    22    25    26   ar
    23    26    30    1
    24    30    31    3
    25    26    27   ar
    26    27    28   ar
    27    28    29    1
    28     4     5    1
    29     5     6    1
    30    17     8   ar
    31     6     1    1
    32    16    10   ar
    33    29    21    1
    34    28    23   ar
    35    18    19    1
@<TRIPOS>MOLECULE
*****
 31 35 0 0 0
SMALL
GASTEIGER

@<TRIPOS>ATOM
      1 C         142.0997  138.6187  159.9870 C.3     1  UNL1        0.0867
      2 C         143.2364  139.5913  159.8780 C.3     1  UNL1        0.0240
      3 C         144.1201  139.8481  161.0625 C.3     1  UNL1        0.0176
      4 C         143.8671  139.1323  162.3562 C.3     1  UNL1        0.0541
      5 C         142.7304  138.1596  162.4653 C.3     1  UNL1        0.0176
      6 C         141.8467  137.9028  161.2808 C.3     1  UNL1        0.0240
      7 C         139.0383  139.6844  159.6109 C.3     1  UNL1        0.0718
      8 C         139.8088  138.8517  158.6297 C.ar    1  UNL1        0.1207
      9 N         139.3075  138.3627  157.3032 N.ar    1  UNL1       -0.2309
     10 C         140.4048  137.5706  156.6563 C.ar    1  UNL1        0.1006
     11 C         140.4823  136.8497  155.3432 C.ar    1  UNL1        0.0502
     12 C         141.7394  136.1284  154.9567 C.ar    1  UNL1        0.1417
     13 F         141.8169  135.4074  153.6435 F       1  UNL1       -0.2041
     14 C         142.9189  136.1278  155.8834 C.ar    1  UNL1        0.0312
     15 C         142.8414  136.8487  157.1965 C.ar    1  UNL1        0.0211
     16 C         141.5843  137.5701  157.5829 C.ar    1  UNL1        0.0787
     17 N         141.2160  138.3619  158.8025 N.ar    1  UNL1       -0.3168
     18 N         144.7508  139.3891  163.5407 N.3     1  UNL1       -0.2985
     19 H         145.7131  139.2926  163.2165 H       1  UNL1        0.1232
     20 C         144.6682  140.6982  164.2683 C.3     1  UNL1        0.0692
     21 C         143.6528  140.8888  165.3559 C.3     1  UNL1        0.0244
     22 C         143.4503  142.1361  166.1641 C.3     1  UNL1        0.0277
     23 C         142.3341  141.8839  167.1339 C.ar    1  UNL1       -0.0260
     24 C         141.6985  142.7507  168.1802 C.ar    1  UNL1       -0.0039
     25 C         140.5756  142.2143  169.0176 C.ar    1  UNL1        0.0099
     26 C         140.0883  140.8111  168.8088 C.ar    1  UNL1        0.0681
     27 C         140.7239  139.9443  167.7625 C.ar    1  UNL1        0.0057
     28 C         141.8469  140.4808  166.9251 C.ar    1  UNL1       -0.0254
     29 C         142.6619  139.8658  165.8262 C.3     1  UNL1        0.0278
     30 C         138.9654  140.2747  169.6462 C.1     1  UNL1        0.1004
     31 N         137.8425  139.7383  170.4837 N.1     1  UNL1       -0.1908
@<TRIPOS>BOND
     1     7     8    1
     2     8     9   ar
     3     9    10   ar
     4    10    11   ar
     5    11    12   ar
     6    12    13    1
     7    12    14   ar
     8    14    15   ar
     9    15    16   ar
    10    16    17   ar
    11     1    17    1
    12     1     2    1
    13     2     3    1
    14     3     4    1
    15     4    18    1
    16    18    20    1
    17    21    20    1
    18    21    22    1
    19    22    23    1
    20    23    24   ar
    21    24    25   ar
    22    25    26   ar
    23    26    30    1
    24    30    31    3
    25    26    27   ar
    26    27    28   ar
    27    28    29    1
    28     4     5    1
    29     5     6    1
    30    17     8   ar
    31     6     1    1
    32    16    10   ar
    33    29    21    1
    34    28    23   ar
    35    18    19    1
@<TRIPOS>MOLECULE
*****
 31 35 0 0 0
SMALL
GASTEIGER

@<TRIPOS>ATOM
      1 C         142.8390  141.3055  165.6594 C.3     1  UNL1        0.0867
      2 C         142.9539  142.6913  165.0970 C.3     1  UNL1        0.0240
      3 C         143.8953  142.9643  163.9615 C.3     1  UNL1        0.0176
      4 C         144.7218  141.8515  163.3884 C.3     1  UNL1        0.0541
      5 C         144.6070  140.4657  163.9508 C.3     1  UNL1        0.0176
      6 C         143.6656  140.1927  165.0863 C.3     1  UNL1        0.0240
      7 C         143.2139  142.3027  168.7440 C.3     1  UNL1        0.0718
      8 C         142.0700  141.4909  168.2127 C.ar    1  UNL1        0.1207
      9 N         140.8974  140.9948  169.0059 N.ar    1  UNL1       -0.2309
     10 C         140.0005  140.2299  168.0783 C.ar    1  UNL1        0.1006
     11 C         138.7007  139.5152  168.3014 C.ar    1  UNL1        0.0502
     12 C         138.0191  138.8239  167.1580 C.ar    1  UNL1        0.1417
     13 F         136.7193  138.1091  167.3811 F       1  UNL1       -0.2041
     14 C         138.6373  138.8472  165.7915 C.ar    1  UNL1        0.0312
     15 C         139.9370  139.5618  165.5684 C.ar    1  UNL1        0.0211
     16 C         140.6186  140.2532  166.7118 C.ar    1  UNL1        0.0787
     17 N         141.8976  141.0325  166.7948 N.ar    1  UNL1       -0.3168
     18 N         145.6632  142.1245  162.2530 N.3     1  UNL1       -0.2985
     19 H         146.1937  141.2672  162.0977 H       1  UNL1        0.1232
     20 C         145.1256  142.5489  160.9185 C.3     1  UNL1        0.0692
     21 C         143.9015  141.8871  160.3582 C.3     1  UNL1        0.0244
     22 C         143.7070  140.4125  160.1646 C.3     1  UNL1        0.0277
     23 C         142.3424  140.1978  159.5800 C.ar    1  UNL1       -0.0260
     24 C         141.6068  138.9537  159.1787 C.ar    1  UNL1       -0.0039
     25 C         140.2224  139.0516  158.6097 C.ar    1  UNL1        0.0099
     26 C         139.5736  140.3935  158.4420 C.ar    1  UNL1        0.0681
     27 C         140.3092  141.6377  158.8433 C.ar    1  UNL1        0.0057
     28 C         141.6937  141.5397  159.4123 C.ar    1  UNL1       -0.0254
     29 C         142.6573  142.5838  159.8933 C.3     1  UNL1        0.0278
     30 C         138.1892  140.4914  157.8730 C.1     1  UNL1        0.1004
     31 N         136.8047  140.5893  157.3040 N.1     1  UNL1       -0.1908
@<TRIPOS>BOND
     1     7     8    1
     2     8     9   ar
     3     9    10   ar
     4    10    11   ar
     5    11    12   ar
     6    12    13    1
     7    12    14   ar
     8    14    15   ar
     9    15    16   ar
    10    16    17   ar
    11     1    17    1
    12     1     2    1
    13     2     3    1
    14     3     4    1
    15     4    18    1
    16    18    20    1
    17    21    20    1
    18    21    22    1
    19    22    23    1
    20    23    24   ar
    21    24    25   ar
    22    25    26   ar
    23    26    30    1
    24    30    31    3
    25    26    27   ar
    26    27    28   ar
    27    28    29    1
    28     4     5    1
    29     5     6    1
    30    17     8   ar
    31     6     1    1
    32    16    10   ar
    33    29    21    1
    34    28    23   ar
    35    18    19    1
