@<TRIPOS>MOLECULE
*****
 33 37 0 0 0
SMALL
GASTEIGER

@<TRIPOS>ATOM
      1 C         142.2429  142.9761  165.3191 C.ar    1  UNL1        0.0906
      2 C         141.4722  142.6096  166.5527 C.ar    1  UNL1        0.1496
      3 O         140.0869  143.1688  166.4169 O.2     1  UNL1       -0.4534
      4 C         140.0016  143.8808  165.0994 C.ar    1  UNL1        0.1454
      5 C         138.8827  144.6223  164.4299 C.ar    1  UNL1        0.0406
      6 C         139.0963  145.2446  163.0819 C.ar    1  UNL1        0.0395
      7 C         140.4287  145.1254  162.4035 C.ar    1  UNL1        0.1311
      8 O         140.6423  145.7478  161.0554 O.3     1  UNL1       -0.5058
      9 C         141.5476  144.3840  163.0730 C.ar    1  UNL1        0.0308
     10 C         141.3341  143.7617  164.4209 C.ar    1  UNL1        0.0421
     11 H         139.9433  146.2110  160.6372 H       1  UNL1        0.2922
     12 C         141.9949  141.8222  167.7175 C.ar    1  UNL1        0.0349
     13 C         142.9291  142.4656  168.6990 C.ar    1  UNL1        0.0061
     14 C         143.4518  141.6782  169.8638 C.ar    1  UNL1        0.0367
     15 C         143.0403  140.2475  170.0472 C.ar    1  UNL1        0.1337
     16 O         143.5630  139.4601  171.2120 O.3     1  UNL1       -0.5055
     17 C         142.1061  139.6041  169.0657 C.ar    1  UNL1        0.0367
     18 C         141.5834  140.3915  167.9009 C.ar    1  UNL1        0.0061
     19 H         144.1465  139.8620  171.8251 H       1  UNL1        0.2922
     20 C         145.4233  141.0148  163.9815 C.3     1  UNL1        0.1109
     21 N         143.9945  141.3714  164.2668 N.am    1  UNL1       -0.2991
     22 C         143.6717  142.6195  165.0338 C.2     1  UNL1        0.2490
     23 O         144.7778  143.5108  165.5154 O.2     1  UNL1       -0.2700
     24 H         143.2685  140.7863  163.9507 H       1  UNL1        0.1498
     25 C         142.8801  144.2649  162.3945 C.3     1  UNL1        0.1023
     26 N         143.1802  143.0728  161.5350 N.3     1  UNL1       -0.2668
     27 C         144.4887  142.7766  160.8640 C.3     1  UNL1        0.0749
     28 C         144.3418  141.4883  160.1099 C.3     1  UNL1        0.0460
     29 C         142.9425  140.9882  160.3148 C.3     1  UNL1        0.1112
     30 C         141.6074  140.3079  160.3828 C.3     1  UNL1        0.0607
     31 C         142.1227  139.2086  159.5018 C.3     1  UNL1        0.1445
     32 O         143.4578  139.8890  159.4339 O.3     1  UNL1       -0.3570
     33 C         142.2246  141.9675  161.1956 C.3     1  UNL1        0.0999
@<TRIPOS>BOND
     1    20    21    1
     2    21    22   am
     3    22    23    2
     4    22     1    1
     5     1     2   ar
     6     2    12    1
     7    12    13   ar
     8    13    14   ar
     9    14    15   ar
    10    15    16    1
    11    15    17   ar
    12    17    18   ar
    13     2     3   ar
    14     3     4   ar
    15     4     5   ar
    16     5     6   ar
    17     6     7   ar
    18     7     8    1
    19     7     9   ar
    20     9    25    1
    21    25    26    1
    22    26    27    1
    23    27    28    1
    24    28    29    1
    25    29    30    1
    26    30    31    1
    27    31    32    1
    28    29    33    1
    29     9    10   ar
    30    10     1   ar
    31    18    12   ar
    32    10     4   ar
    33    33    26    1
    34    32    29    1
    35    21    24    1
    36    16    19    1
    37     8    11    1
@<TRIPOS>MOLECULE
*****
 33 37 0 0 0
SMALL
GASTEIGER

@<TRIPOS>ATOM
      1 C         140.1046  141.1571  165.7512 C.ar    1  UNL1        0.0906
      2 C         140.6516  141.9262  166.9171 C.ar    1  UNL1        0.1496
      3 O         140.2929  143.3705  166.7290 O.2     1  UNL1       -0.4534
      4 C         139.5243  143.4940  165.4469 C.ar    1  UNL1        0.1454
      5 C         138.9153  144.6754  164.7516 C.ar    1  UNL1        0.0406
      6 C         138.1899  144.4888  163.4520 C.ar    1  UNL1        0.0395
      7 C         138.0735  143.1209  162.8477 C.ar    1  UNL1        0.1311
      8 O         137.3481  142.9344  161.5480 O.3     1  UNL1       -0.5058
      9 C         138.6825  141.9395  163.5429 C.ar    1  UNL1        0.0308
     10 C         139.4079  142.1261  164.8425 C.ar    1  UNL1        0.0421
     11 H         136.9677  143.6724  161.1137 H       1  UNL1        0.2922
     12 C         141.4220  141.3518  168.0689 C.ar    1  UNL1        0.0349
     13 C         142.6468  142.0535  168.5763 C.ar    1  UNL1        0.0061
     14 C         143.4172  141.4791  169.7281 C.ar    1  UNL1        0.0367
     15 C         142.9628  140.2031  170.3724 C.ar    1  UNL1        0.1337
     16 O         143.7332  139.6287  171.5242 O.3     1  UNL1       -0.5055
     17 C         141.7381  139.5014  169.8650 C.ar    1  UNL1        0.0367
     18 C         140.9677  140.0758  168.7132 C.ar    1  UNL1        0.0061
     19 H         144.4983  140.0671  171.8412 H       1  UNL1        0.2922
     20 C         141.5929  137.6410  164.6685 C.3     1  UNL1        0.1109
     21 N         141.4655  139.1195  164.8874 N.am    1  UNL1       -0.2991
     22 C         140.2320  139.6787  165.5324 C.2     1  UNL1        0.2490
     23 O         139.1260  138.7594  165.9584 O.2     1  UNL1       -0.2700
     24 H         142.1914  139.7228  164.6077 H       1  UNL1        0.1498
     25 C         138.5661  140.5716  162.9386 C.3     1  UNL1        0.1023
     26 N         139.7087  139.9988  162.1536 N.3     1  UNL1       -0.2668
     27 C         139.7880  138.6070  161.5997 C.3     1  UNL1        0.0749
     28 C         141.1009  138.4651  160.8884 C.3     1  UNL1        0.0460
     29 C         141.8333  139.7693  161.0027 C.3     1  UNL1        0.1112
     30 C         142.7352  140.9677  160.9927 C.3     1  UNL1        0.0607
     31 C         143.7493  140.1979  160.1995 C.3     1  UNL1        0.1445
     32 O         142.8472  138.9995  160.2095 O.3     1  UNL1       -0.3570
     33 C         140.9728  140.7171  161.7846 C.3     1  UNL1        0.0999
@<TRIPOS>BOND
     1    20    21    1
     2    21    22   am
     3    22    23    2
     4    22     1    1
     5     1     2   ar
     6     2    12    1
     7    12    13   ar
     8    13    14   ar
     9    14    15   ar
    10    15    16    1
    11    15    17   ar
    12    17    18   ar
    13     2     3   ar
    14     3     4   ar
    15     4     5   ar
    16     5     6   ar
    17     6     7   ar
    18     7     8    1
    19     7     9   ar
    20     9    25    1
    21    25    26    1
    22    26    27    1
    23    27    28    1
    24    28    29    1
    25    29    30    1
    26    30    31    1
    27    31    32    1
    28    29    33    1
    29     9    10   ar
    30    10     1   ar
    31    18    12   ar
    32    10     4   ar
    33    33    26    1
    34    32    29    1
    35    21    24    1
    36    16    19    1
    37     8    11    1
@<TRIPOS>MOLECULE
*****
 33 37 0 0 0
SMALL
GASTEIGER

@<TRIPOS>ATOM
      1 C         141.5103  142.9436  165.3720 C.ar    1  UNL1        0.0906
      2 C         140.4088  143.0227  166.3871 C.ar    1  UNL1        0.1496
      3 O         139.3282  143.9018  165.8309 O.2     1  UNL1       -0.4534
      4 C         139.7618  144.3660  164.4720 C.ar    1  UNL1        0.1454
      5 C         139.1029  145.2515  163.4563 C.ar    1  UNL1        0.0406
      6 C         139.7926  145.5447  162.1570 C.ar    1  UNL1        0.0395
      7 C         141.1413  144.9525  161.8734 C.ar    1  UNL1        0.1311
      8 O         141.8310  145.2458  160.5740 O.3     1  UNL1       -0.5058
      9 C         141.8002  144.0671  162.8891 C.ar    1  UNL1        0.0308
     10 C         141.1105  143.7738  164.1884 C.ar    1  UNL1        0.0421
     11 H         141.4193  145.7989  159.9395 H       1  UNL1        0.2922
     12 C         140.3911  142.3421  167.7237 C.ar    1  UNL1        0.0349
     13 C         140.5217  143.1520  168.9795 C.ar    1  UNL1        0.0061
     14 C         140.5040  142.4714  170.3161 C.ar    1  UNL1        0.0367
     15 C         140.3555  140.9810  170.3970 C.ar    1  UNL1        0.1337
     16 O         140.3378  140.3005  171.7336 O.3     1  UNL1       -0.5055
     17 C         140.2248  140.1712  169.1412 C.ar    1  UNL1        0.0367
     18 C         140.2426  140.8517  167.8046 C.ar    1  UNL1        0.0061
     19 H         140.4194  140.8064  172.5180 H       1  UNL1        0.2922
     20 C         144.1361  139.9733  165.1901 C.3     1  UNL1        0.1109
     21 N         142.8590  140.7468  165.0468 N.am    1  UNL1       -0.2991
     22 C         142.7875  142.1701  165.5153 C.2     1  UNL1        0.2490
     23 O         143.9932  142.8196  166.1270 O.2     1  UNL1       -0.2700
     24 H         142.0676  140.3204  164.6453 H       1  UNL1        0.1498
     25 C         143.1488  143.4748  162.6055 C.3     1  UNL1        0.1023
     26 N         143.2581  142.0696  162.0923 N.3     1  UNL1       -0.2668
     27 C         144.5305  141.3019  161.8881 C.3     1  UNL1        0.0749
     28 C         144.1729  139.9432  161.3627 C.3     1  UNL1        0.0460
     29 C         142.6794  139.8711  161.2421 C.3     1  UNL1        0.1112
     30 C         141.2215  139.5802  161.0428 C.3     1  UNL1        0.0607
     31 C         141.5630  138.2035  160.5547 C.3     1  UNL1        0.1445
     32 O         143.0209  138.4946  160.7541 O.3     1  UNL1       -0.3570
     33 C         142.1140  141.1854  161.6930 C.3     1  UNL1        0.0999
@<TRIPOS>BOND
     1    20    21    1
     2    21    22   am
     3    22    23    2
     4    22     1    1
     5     1     2   ar
     6     2    12    1
     7    12    13   ar
     8    13    14   ar
     9    14    15   ar
    10    15    16    1
    11    15    17   ar
    12    17    18   ar
    13     2     3   ar
    14     3     4   ar
    15     4     5   ar
    16     5     6   ar
    17     6     7   ar
    18     7     8    1
    19     7     9   ar
    20     9    25    1
    21    25    26    1
    22    26    27    1
    23    27    28    1
    24    28    29    1
    25    29    30    1
    26    30    31    1
    27    31    32    1
    28    29    33    1
    29     9    10   ar
    30    10     1   ar
    31    18    12   ar
    32    10     4   ar
    33    33    26    1
    34    32    29    1
    35    21    24    1
    36    16    19    1
    37     8    11    1
@<TRIPOS>MOLECULE
*****
 33 37 0 0 0
SMALL
GASTEIGER

@<TRIPOS>ATOM
      1 C         140.3301  141.3105  165.6704 C.ar    1  UNL1        0.0906
      2 C         140.6474  141.9868  166.9711 C.ar    1  UNL1        0.1496
      3 O         140.0291  143.3532  166.9459 O.2     1  UNL1       -0.4534
      4 C         139.3297  143.5214  165.6297 C.ar    1  UNL1        0.1454
      5 C         138.5474  144.6610  165.0472 C.ar    1  UNL1        0.0406
      6 C         137.9512  144.5381  163.6763 C.ar    1  UNL1        0.0395
      7 C         138.1373  143.2757  162.8879 C.ar    1  UNL1        0.1311
      8 O         137.5410  143.1528  161.5169 O.3     1  UNL1       -0.5058
      9 C         138.9195  142.1361  163.4704 C.ar    1  UNL1        0.0308
     10 C         139.5157  142.2589  164.8413 C.ar    1  UNL1        0.0421
     11 H         137.0524  143.8647  161.1530 H       1  UNL1        0.2922
     12 C         141.4432  141.3998  168.0989 C.ar    1  UNL1        0.0349
     13 C         141.0205  140.1008  168.7186 C.ar    1  UNL1        0.0061
     14 C         141.8164  139.5138  169.8464 C.ar    1  UNL1        0.0367
     15 C         143.0349  140.2257  170.3546 C.ar    1  UNL1        0.1337
     16 O         143.8307  139.6387  171.4825 O.3     1  UNL1       -0.5055
     17 C         143.4575  141.5247  169.7350 C.ar    1  UNL1        0.0367
     18 C         142.6617  142.1117  168.6072 C.ar    1  UNL1        0.0061
     19 H         143.5667  138.8273  171.8695 H       1  UNL1        0.2922
     20 C         142.4477  138.3448  164.0985 C.3     1  UNL1        0.1109
     21 N         142.0248  139.7269  164.4998 N.am    1  UNL1       -0.2991
     22 C         140.7529  139.9284  165.2691 C.2     1  UNL1        0.2490
     23 O         139.9039  138.7479  165.6370 O.2     1  UNL1       -0.2700
     24 H         142.5821  140.5017  164.2583 H       1  UNL1        0.1498
     25 C         139.1055  140.8736  162.6820 C.3     1  UNL1        0.1023
     26 N         140.3208  140.6997  161.8202 N.3     1  UNL1       -0.2668
     27 C         141.3999  141.7185  161.6018 C.3     1  UNL1        0.0749
     28 C         142.4164  141.1251  160.6720 C.3     1  UNL1        0.0460
     29 C         141.9656  139.7394  160.3157 C.3     1  UNL1        0.1112
     30 C         141.7104  138.3438  159.8291 C.3     1  UNL1        0.0607
     31 C         142.9813  138.3888  159.0335 C.3     1  UNL1        0.1445
     32 O         143.2364  139.7845  159.5203 O.3     1  UNL1       -0.3570
     33 C         140.6704  139.4766  161.0254 C.3     1  UNL1        0.0999
@<TRIPOS>BOND
     1    20    21    1
     2    21    22   am
     3    22    23    2
     4    22     1    1
     5     1     2   ar
     6     2    12    1
     7    12    13   ar
     8    13    14   ar
     9    14    15   ar
    10    15    16    1
    11    15    17   ar
    12    17    18   ar
    13     2     3   ar
    14     3     4   ar
    15     4     5   ar
    16     5     6   ar
    17     6     7   ar
    18     7     8    1
    19     7     9   ar
    20     9    25    1
    21    25    26    1
    22    26    27    1
    23    27    28    1
    24    28    29    1
    25    29    30    1
    26    30    31    1
    27    31    32    1
    28    29    33    1
    29     9    10   ar
    30    10     1   ar
    31    18    12   ar
    32    10     4   ar
    33    33    26    1
    34    32    29    1
    35    21    24    1
    36    16    19    1
    37     8    11    1
@<TRIPOS>MOLECULE
*****
 33 37 0 0 0
SMALL
GASTEIGER

@<TRIPOS>ATOM
      1 C         141.3443  140.8695  165.4930 C.ar    1  UNL1        0.0906
      2 C         141.0423  140.7157  166.9542 C.ar    1  UNL1        0.1496
      3 O         140.0718  139.5826  167.1101 O.2     1  UNL1       -0.4534
      4 C         139.7740  139.0361  165.7453 C.ar    1  UNL1        0.1454
      5 C         138.8884  137.9171  165.2835 C.ar    1  UNL1        0.0406
      6 C         138.7892  137.5934  163.8223 C.ar    1  UNL1        0.0395
      7 C         139.5756  138.3887  162.8228 C.ar    1  UNL1        0.1311
      8 O         139.4764  138.0650  161.3615 O.3     1  UNL1       -0.5058
      9 C         140.4613  139.5078  163.2846 C.ar    1  UNL1        0.0308
     10 C         140.5605  139.8315  164.7459 C.ar    1  UNL1        0.0421
     11 H         138.9232  137.3659  161.0730 H       1  UNL1        0.2922
     12 C         141.6109  141.5487  168.0645 C.ar    1  UNL1        0.0349
     13 C         140.7559  142.5767  168.7444 C.ar    1  UNL1        0.0061
     14 C         141.3245  143.4097  169.8547 C.ar    1  UNL1        0.0367
     15 C         142.7481  143.2147  170.2851 C.ar    1  UNL1        0.1337
     16 O         143.3167  144.0477  171.3955 O.3     1  UNL1       -0.5055
     17 C         143.6031  142.1868  169.6053 C.ar    1  UNL1        0.0367
     18 C         143.0345  141.3538  168.4950 C.ar    1  UNL1        0.0061
     19 H         142.7826  144.6899  171.8201 H       1  UNL1        0.2922
     20 C         142.6647  144.2398  163.8656 C.3     1  UNL1        0.1109
     21 N         141.7410  143.2259  164.4731 N.am    1  UNL1       -0.2991
     22 C         142.2679  141.8834  164.8855 C.2     1  UNL1        0.2490
     23 O         143.7184  141.5548  164.6905 O.2     1  UNL1       -0.2700
     24 H         140.7890  143.4417  164.6011 H       1  UNL1        0.1498
     25 C         141.2477  140.3032  162.2851 C.3     1  UNL1        0.1023
     26 N         140.7014  141.5975  161.7598 N.3     1  UNL1       -0.2668
     27 C         139.3460  142.1676  162.0563 C.3     1  UNL1        0.0749
     28 C         139.2214  143.4716  161.3254 C.3     1  UNL1        0.0460
     29 C         140.4999  143.7075  160.5771 C.3     1  UNL1        0.1112
     30 C         141.6772  144.1428  159.7559 C.3     1  UNL1        0.0607
     31 C         140.9376  145.3844  159.3540 C.3     1  UNL1        0.1445
     32 O         139.7604  144.9490  160.1752 O.3     1  UNL1       -0.3570
     33 C         141.4146  142.5492  160.8455 C.3     1  UNL1        0.0999
@<TRIPOS>BOND
     1    20    21    1
     2    21    22   am
     3    22    23    2
     4    22     1    1
     5     1     2   ar
     6     2    12    1
     7    12    13   ar
     8    13    14   ar
     9    14    15   ar
    10    15    16    1
    11    15    17   ar
    12    17    18   ar
    13     2     3   ar
    14     3     4   ar
    15     4     5   ar
    16     5     6   ar
    17     6     7   ar
    18     7     8    1
    19     7     9   ar
    20     9    25    1
    21    25    26    1
    22    26    27    1
    23    27    28    1
    24    28    29    1
    25    29    30    1
    26    30    31    1
    27    31    32    1
    28    29    33    1
    29     9    10   ar
    30    10     1   ar
    31    18    12   ar
    32    10     4   ar
    33    33    26    1
    34    32    29    1
    35    21    24    1
    36    16    19    1
    37     8    11    1
@<TRIPOS>MOLECULE
*****
 33 37 0 0 0
SMALL
GASTEIGER

@<TRIPOS>ATOM
      1 C         140.2528  141.6341  165.4437 C.ar    1  UNL1        0.0906
      2 C         140.7515  141.0186  166.7174 C.ar    1  UNL1        0.1496
      3 O         140.5091  139.5402  166.6437 O.2     1  UNL1       -0.4534
      4 C         139.8607  139.2419  165.3245 C.ar    1  UNL1        0.1454
      5 C         139.3940  137.9591  164.7027 C.ar    1  UNL1        0.0406
      6 C         138.7688  137.9704  163.3393 C.ar    1  UNL1        0.0395
      7 C         138.6104  139.2646  162.5976 C.ar    1  UNL1        0.1311
      8 O         137.9852  139.2759  161.2341 O.3     1  UNL1       -0.5058
      9 C         139.0771  140.5474  163.2193 C.ar    1  UNL1        0.0308
     10 C         139.7022  140.5360  164.5828 C.ar    1  UNL1        0.0421
     11 H         137.6937  138.4745  160.8457 H       1  UNL1        0.2922
     12 C         141.3819  141.7527  167.8636 C.ar    1  UNL1        0.0349
     13 C         140.5488  142.6536  168.7263 C.ar    1  UNL1        0.0061
     14 C         141.1791  143.3877  169.8725 C.ar    1  UNL1        0.0367
     15 C         142.6426  143.2209  170.1560 C.ar    1  UNL1        0.1337
     16 O         143.2730  143.9550  171.3022 O.3     1  UNL1       -0.5055
     17 C         143.4757  142.3200  169.2933 C.ar    1  UNL1        0.0367
     18 C         142.8453  141.5859  168.1471 C.ar    1  UNL1        0.0061
     19 H         142.7525  144.5178  171.8411 H       1  UNL1        0.2922
     20 C         141.5353  145.1138  164.0305 C.3     1  UNL1        0.1109
     21 N         141.4912  143.6562  164.3817 N.am    1  UNL1       -0.2991
     22 C         140.2968  143.0917  165.0924 C.2     1  UNL1        0.2490
     23 O         139.1467  143.9849  165.4519 O.2     1  UNL1       -0.2700
     24 H         142.2461  143.0699  164.1458 H       1  UNL1        0.1498
     25 C         138.9186  141.8415  162.4776 C.3     1  UNL1        0.1023
     26 N         140.0784  142.4202  161.7228 N.3     1  UNL1       -0.2668
     27 C         140.0950  143.7382  161.0066 C.3     1  UNL1        0.0749
     28 C         141.4522  143.9151  160.3928 C.3     1  UNL1        0.0460
     29 C         142.2745  142.7066  160.7296 C.3     1  UNL1        0.1112
     30 C         143.2679  141.6035  160.9442 C.3     1  UNL1        0.0607
     31 C         144.2849  142.3642  160.1459 C.3     1  UNL1        0.1445
     32 O         143.2913  143.4672  159.9314 O.3     1  UNL1       -0.3570
     33 C         141.4254  141.7827  161.5516 C.3     1  UNL1        0.0999
@<TRIPOS>BOND
     1    20    21    1
     2    21    22   am
     3    22    23    2
     4    22     1    1
     5     1     2   ar
     6     2    12    1
     7    12    13   ar
     8    13    14   ar
     9    14    15   ar
    10    15    16    1
    11    15    17   ar
    12    17    18   ar
    13     2     3   ar
    14     3     4   ar
    15     4     5   ar
    16     5     6   ar
    17     6     7   ar
    18     7     8    1
    19     7     9   ar
    20     9    25    1
    21    25    26    1
    22    26    27    1
    23    27    28    1
    24    28    29    1
    25    29    30    1
    26    30    31    1
    27    31    32    1
    28    29    33    1
    29     9    10   ar
    30    10     1   ar
    31    18    12   ar
    32    10     4   ar
    33    33    26    1
    34    32    29    1
    35    21    24    1
    36    16    19    1
    37     8    11    1
@<TRIPOS>MOLECULE
*****
 33 37 0 0 0
SMALL
GASTEIGER

@<TRIPOS>ATOM
      1 C         141.6798  142.3167  165.3776 C.ar    1  UNL1        0.0906
      2 C         141.2229  142.3648  166.8055 C.ar    1  UNL1        0.1496
      3 O         139.9988  143.2292  166.8716 O.2     1  UNL1       -0.4534
      4 C         139.6992  143.7154  165.4846 C.ar    1  UNL1        0.1454
      5 C         138.6145  144.5987  164.9431 C.ar    1  UNL1        0.0406
      6 C         138.5688  144.9181  163.4782 C.ar    1  UNL1        0.0395
      7 C         139.6077  144.3542  162.5549 C.ar    1  UNL1        0.1311
      8 O         139.5620  144.6736  161.0899 O.3     1  UNL1       -0.5058
      9 C         140.6923  143.4708  163.0963 C.ar    1  UNL1        0.0308
     10 C         140.7381  143.1514  164.5612 C.ar    1  UNL1        0.0421
     11 H         138.8844  145.2254  160.7517 H       1  UNL1        0.2922
     12 C         141.8755  141.6704  167.9639 C.ar    1  UNL1        0.0349
     13 C         142.8876  142.3961  168.7999 C.ar    1  UNL1        0.0061
     14 C         143.5402  141.7017  169.9583 C.ar    1  UNL1        0.0367
     15 C         143.1808  140.2815  170.2806 C.ar    1  UNL1        0.1337
     16 O         143.8334  139.5871  171.4390 O.3     1  UNL1       -0.5055
     17 C         142.1687  139.5558  169.4446 C.ar    1  UNL1        0.0367
     18 C         141.5161  140.2502  168.2862 C.ar    1  UNL1        0.0061
     19 H         144.4656  140.0404  171.9613 H       1  UNL1        0.2922
     20 C         143.9034  139.4021  163.8573 C.3     1  UNL1        0.1109
     21 N         142.7137  140.1530  164.3776 N.am    1  UNL1       -0.2991
     22 C         142.8695  141.5658  164.8573 C.2     1  UNL1        0.2490
     23 O         144.2150  142.2274  164.8167 O.2     1  UNL1       -0.2700
     24 H         141.8305  139.7187  164.4042 H       1  UNL1        0.1498
     25 C         141.7312  142.9069  162.1729 C.3     1  UNL1        0.1023
     26 N         141.5322  141.5537  161.5572 N.3     1  UNL1       -0.2668
     27 C         140.3077  140.6971  161.6875 C.3     1  UNL1        0.0749
     28 C         140.5415  139.4334  160.9138 C.3     1  UNL1        0.0460
     29 C         141.9104  139.5090  160.3052 C.3     1  UNL1        0.1112
     30 C         143.2313  139.3721  159.6079 C.3     1  UNL1        0.0607
     31 C         142.8206  138.0236  159.0948 C.3     1  UNL1        0.1445
     32 O         141.4997  138.1607  159.7923 O.3     1  UNL1       -0.3570
     33 C         142.5227  140.8194  160.7029 C.3     1  UNL1        0.0999
@<TRIPOS>BOND
     1    20    21    1
     2    21    22   am
     3    22    23    2
     4    22     1    1
     5     1     2   ar
     6     2    12    1
     7    12    13   ar
     8    13    14   ar
     9    14    15   ar
    10    15    16    1
    11    15    17   ar
    12    17    18   ar
    13     2     3   ar
    14     3     4   ar
    15     4     5   ar
    16     5     6   ar
    17     6     7   ar
    18     7     8    1
    19     7     9   ar
    20     9    25    1
    21    25    26    1
    22    26    27    1
    23    27    28    1
    24    28    29    1
    25    29    30    1
    26    30    31    1
    27    31    32    1
    28    29    33    1
    29     9    10   ar
    30    10     1   ar
    31    18    12   ar
    32    10     4   ar
    33    33    26    1
    34    32    29    1
    35    21    24    1
    36    16    19    1
    37     8    11    1
@<TRIPOS>MOLECULE
*****
 33 37 0 0 0
SMALL
GASTEIGER

@<TRIPOS>ATOM
      1 C         141.5066  142.1243  165.4707 C.ar    1  UNL1        0.0906
      2 C         141.2156  142.3455  166.9255 C.ar    1  UNL1        0.1496
      3 O         140.1507  143.3966  167.0305 O.2     1  UNL1       -0.4534
      4 C         139.7835  143.8250  165.6407 C.ar    1  UNL1        0.1454
      5 C         138.7943  144.8296  165.1285 C.ar    1  UNL1        0.0406
      6 C         138.6432  145.0478  163.6522 C.ar    1  UNL1        0.0395
      7 C         139.4812  144.2615  162.6881 C.ar    1  UNL1        0.1311
      8 O         139.3301  144.4797  161.2117 O.3     1  UNL1       -0.5058
      9 C         140.4704  143.2569  163.2003 C.ar    1  UNL1        0.0308
     10 C         140.6215  143.0387  164.6766 C.ar    1  UNL1        0.0421
     11 H         138.7122  145.1073  160.8918 H       1  UNL1        0.2922
     12 C         141.8740  141.6395  168.0736 C.ar    1  UNL1        0.0349
     13 C         141.4662  140.2398  168.4266 C.ar    1  UNL1        0.0061
     14 C         142.1245  139.5339  169.5747 C.ar    1  UNL1        0.0367
     15 C         143.1907  140.2275  170.3698 C.ar    1  UNL1        0.1337
     16 O         143.8490  139.5215  171.5179 O.3     1  UNL1       -0.5055
     17 C         143.5984  141.6271  170.0168 C.ar    1  UNL1        0.0367
     18 C         142.9401  142.3331  168.8686 C.ar    1  UNL1        0.0061
     19 H         143.5943  138.6472  171.7384 H       1  UNL1        0.2922
     20 C         144.9109  140.6431  164.0682 C.3     1  UNL1        0.1109
     21 N         143.9105  141.6091  164.6303 N.am    1  UNL1       -0.2991
     22 C         142.5070  141.1583  164.9086 C.2     1  UNL1        0.2490
     23 O         142.1042  139.7416  164.6247 O.2     1  UNL1       -0.2700
     24 H         144.1749  142.5389  164.8166 H       1  UNL1        0.1498
     25 C         141.3084  142.4706  162.2363 C.3     1  UNL1        0.1023
     26 N         140.8653  141.1067  161.7967 N.3     1  UNL1       -0.2668
     27 C         141.6302  140.1770  160.9017 C.3     1  UNL1        0.0749
     28 C         140.8172  138.9286  160.7267 C.3     1  UNL1        0.0460
     29 C         139.5499  139.0867  161.5135 C.3     1  UNL1        0.1112
     30 C         138.2289  139.0295  162.2218 C.3     1  UNL1        0.0607
     31 C         137.9895  137.6575  161.6645 C.3     1  UNL1        0.1445
     32 O         139.3105  137.7148  160.9562 O.3     1  UNL1       -0.3570
     33 C         139.5796  140.4328  162.1748 C.3     1  UNL1        0.0999
@<TRIPOS>BOND
     1    20    21    1
     2    21    22   am
     3    22    23    2
     4    22     1    1
     5     1     2   ar
     6     2    12    1
     7    12    13   ar
     8    13    14   ar
     9    14    15   ar
    10    15    16    1
    11    15    17   ar
    12    17    18   ar
    13     2     3   ar
    14     3     4   ar
    15     4     5   ar
    16     5     6   ar
    17     6     7   ar
    18     7     8    1
    19     7     9   ar
    20     9    25    1
    21    25    26    1
    22    26    27    1
    23    27    28    1
    24    28    29    1
    25    29    30    1
    26    30    31    1
    27    31    32    1
    28    29    33    1
    29     9    10   ar
    30    10     1   ar
    31    18    12   ar
    32    10     4   ar
    33    33    26    1
    34    32    29    1
    35    21    24    1
    36    16    19    1
    37     8    11    1
@<TRIPOS>MOLECULE
*****
 33 37 0 0 0
SMALL
GASTEIGER

@<TRIPOS>ATOM
      1 C         141.6928  140.0252  165.4390 C.ar    1  UNL1        0.0906
      2 C         140.8667  139.9187  166.6865 C.ar    1  UNL1        0.1496
      3 O         139.6371  139.1234  166.3616 O.2     1  UNL1       -0.4534
      4 C         139.7033  138.7383  164.9133 C.ar    1  UNL1        0.1454
      5 C         138.7708  137.9523  164.0401 C.ar    1  UNL1        0.0406
      6 C         139.1089  137.7235  162.5967 C.ar    1  UNL1        0.0395
      7 C         140.3794  138.2809  162.0266 C.ar    1  UNL1        0.1311
      8 O         140.7175  138.0521  160.5831 O.3     1  UNL1       -0.5058
      9 C         141.3119  139.0670  162.8998 C.ar    1  UNL1        0.0308
     10 C         140.9738  139.2957  164.3432 C.ar    1  UNL1        0.0421
     11 H         140.1350  137.5611  160.0377 H       1  UNL1        0.2922
     12 C         141.2098  140.5046  168.0240 C.ar    1  UNL1        0.0349
     13 C         142.2436  139.8458  168.8884 C.ar    1  UNL1        0.0061
     14 C         142.5868  140.4317  170.2259 C.ar    1  UNL1        0.0367
     15 C         141.8962  141.6764  170.6990 C.ar    1  UNL1        0.1337
     16 O         142.2394  142.2623  172.0365 O.3     1  UNL1       -0.5055
     17 C         140.8624  142.3351  169.8346 C.ar    1  UNL1        0.0367
     18 C         140.5192  141.7492  168.4971 C.ar    1  UNL1        0.0061
     19 H         142.8852  141.8508  172.5765 H       1  UNL1        0.2922
     20 C         144.3543  142.9361  164.9992 C.3     1  UNL1        0.1109
     21 N         143.0399  142.2249  165.1282 N.am    1  UNL1       -0.2991
     22 C         143.0072  140.7363  165.3101 C.2     1  UNL1        0.2490
     23 O         144.2889  139.9590  165.3630 O.2     1  UNL1       -0.2700
     24 H         142.1987  142.7352  165.0935 H       1  UNL1        0.1498
     25 C         142.5824  139.6243  162.3296 C.3     1  UNL1        0.1023
     26 N         142.6471  141.0617  161.9057 N.3     1  UNL1       -0.2668
     27 C         143.8822  141.8025  161.4862 C.3     1  UNL1        0.0749
     28 C         143.4865  143.2093  161.1480 C.3     1  UNL1        0.0460
     29 C         142.0069  143.3380  161.3585 C.3     1  UNL1        0.1112
     30 C         140.5556  143.6899  161.5000 C.3     1  UNL1        0.0607
     31 C         140.8510  145.0895  161.0483 C.3     1  UNL1        0.1445
     32 O         142.3022  144.7375  160.9068 O.3     1  UNL1       -0.3570
     33 C         141.4881  142.0107  161.8267 C.3     1  UNL1        0.0999
@<TRIPOS>BOND
     1    20    21    1
     2    21    22   am
     3    22    23    2
     4    22     1    1
     5     1     2   ar
     6     2    12    1
     7    12    13   ar
     8    13    14   ar
     9    14    15   ar
    10    15    16    1
    11    15    17   ar
    12    17    18   ar
    13     2     3   ar
    14     3     4   ar
    15     4     5   ar
    16     5     6   ar
    17     6     7   ar
    18     7     8    1
    19     7     9   ar
    20     9    25    1
    21    25    26    1
    22    26    27    1
    23    27    28    1
    24    28    29    1
    25    29    30    1
    26    30    31    1
    27    31    32    1
    28    29    33    1
    29     9    10   ar
    30    10     1   ar
    31    18    12   ar
    32    10     4   ar
    33    33    26    1
    34    32    29    1
    35    21    24    1
    36    16    19    1
    37     8    11    1
