@<TRIPOS>MOLECULE
*****
 29 32 0 0 0
SMALL
GASTEIGER

@<TRIPOS>ATOM
      1 N         142.0429  138.9373  165.2034 N.pl3   1  UNL1       -0.3146
      2 H         142.3094  138.0135  164.9918 H       1  UNL1        0.1486
      3 C         142.0810  139.9918  164.1372 C.ar    1  UNL1        0.1595
      4 N         141.2566  141.2446  164.1064 N.ar    1  UNL1       -0.2246
      5 C         141.6162  142.0056  162.8648 C.ar    1  UNL1        0.0857
      6 C         142.6628  141.2231  162.1284 C.ar    1  UNL1        0.0284
      7 S         142.9500  139.9786  162.9147 S.2     1  UNL1       -0.0561
      8 C         143.3451  141.5597  160.8356 C.3     1  UNL1        0.0466
      9 C         143.1494  142.7618  159.9600 C.3     1  UNL1        0.0674
     10 S         142.2229  143.9243  160.1610 S.3     1  UNL1       -0.1132
     11 C         141.2634  144.1718  161.2871 C.ar    1  UNL1        0.0267
     12 C         140.5221  145.4625  161.1018 C.ar    1  UNL1        0.0062
     13 C         139.5108  145.8994  162.1199 C.ar    1  UNL1        0.0005
     14 C         139.2408  145.0455  163.3232 C.ar    1  UNL1        0.0001
     15 C         139.9821  143.7547  163.5085 C.ar    1  UNL1        0.0020
     16 C         140.9934  143.3179  162.4905 C.ar    1  UNL1        0.0236
     17 C         140.7105  139.9966  169.3690 C.3     1  UNL1        0.0175
     18 C         142.1486  139.6624  169.1037 C.3     1  UNL1        0.0031
     19 C         142.5926  139.3093  167.7152 C.3     1  UNL1        0.0196
     20 C         141.5988  139.2904  166.5920 C.3     1  UNL1        0.0708
     21 C         140.1607  139.6246  166.8572 C.3     1  UNL1        0.0196
     22 C         139.7166  139.9776  168.2458 C.3     1  UNL1        0.0031
     23 C         140.2663  140.3497  170.7576 C.3     1  UNL1        0.0910
     24 N         140.7485  141.6167  171.3998 N.3     1  UNL1       -0.1833
     25 H         140.2719  141.6911  172.2986 H       1  UNL1        0.1484
     26 C         140.3738  144.2439  170.0008 C.3     1  UNL1        0.1957
     27 S         140.5612  142.9303  170.7003 S.O2    1  UNL1        0.0426
     28 O         142.0492  143.0846  170.5915 O.2     1  UNL1       -0.1575
     29 O         139.0731  142.7760  170.8090 O.2     1  UNL1       -0.1575
@<TRIPOS>BOND
     1    26    27    1
     2    27    28    2
     3    27    29    2
     4    27    24    1
     5    24    23    1
     6    17    23    1
     7    17    18    1
     8    18    19    1
     9    19    20    1
    10    20     1    1
    11     1     3    1
    12     3     4   ar
    13     4     5   ar
    14     5     6   ar
    15     6     7   ar
    16     6     8    1
    17     8     9    1
    18     9    10    1
    19    10    11    1
    20    11    12   ar
    21    12    13   ar
    22    13    14   ar
    23    14    15   ar
    24    15    16   ar
    25    20    21    1
    26    21    22    1
    27    22    17    1
    28     7     3   ar
    29    16    11   ar
    30    16     5    1
    31    24    25    1
    32     1     2    1
@<TRIPOS>MOLECULE
*****
 29 32 0 0 0
SMALL
GASTEIGER

@<TRIPOS>ATOM
      1 N         138.8958  139.2859  157.6756 N.pl3   1  UNL1       -0.3146
      2 H         138.2626  139.5241  156.9604 H       1  UNL1        0.1486
      3 C         138.7054  139.8338  159.0590 C.ar    1  UNL1        0.1595
      4 N         138.7777  139.0496  160.3356 N.ar    1  UNL1       -0.2246
      5 C         138.5262  139.9933  161.4741 C.ar    1  UNL1        0.0857
      6 C         138.2986  141.3607  160.9011 C.ar    1  UNL1        0.0284
      7 S         138.4093  141.2622  159.4085 S.2     1  UNL1       -0.0561
      8 C         138.0077  142.6416  161.6254 C.3     1  UNL1        0.0466
      9 C         137.8727  142.8716  163.1016 C.3     1  UNL1        0.0674
     10 S         137.9953  141.8772  164.2179 S.3     1  UNL1       -0.1132
     11 C         138.2830  140.4075  164.1340 C.ar    1  UNL1        0.0267
     12 C         138.3204  139.7778  165.4949 C.ar    1  UNL1        0.0062
     13 C         138.5940  138.3096  165.6346 C.ar    1  UNL1        0.0005
     14 C         138.8303  137.4712  164.4135 C.ar    1  UNL1        0.0001
     15 C         138.7930  138.1009  163.0526 C.ar    1  UNL1        0.0020
     16 C         138.5193  139.5690  162.9129 C.ar    1  UNL1        0.0236
     17 C         142.3613  136.5537  156.7950 C.3     1  UNL1        0.0175
     18 C         142.5109  137.6535  157.8041 C.3     1  UNL1        0.0031
     19 C         141.3557  138.5642  158.0975 C.3     1  UNL1        0.0196
     20 C         140.0510  138.3752  157.3821 C.3     1  UNL1        0.0708
     21 C         139.9014  137.2754  156.3731 C.3     1  UNL1        0.0196
     22 C         141.0566  136.3647  156.0796 C.3     1  UNL1        0.0031
     23 C         143.5165  135.6429  156.5015 C.3     1  UNL1        0.0910
     24 N         143.2955  134.1634  156.3899 N.3     1  UNL1       -0.1833
     25 H         142.3392  133.9846  156.6964 H       1  UNL1        0.1484
     26 C         145.0589  132.2654  157.9024 C.3     1  UNL1        0.1957
     27 S         144.1772  133.2144  157.1462 S.O2    1  UNL1        0.0426
     28 O         143.8825  133.9537  158.4177 O.2     1  UNL1       -0.1575
     29 O         144.4720  132.4751  155.8748 O.2     1  UNL1       -0.1575
@<TRIPOS>BOND
     1    26    27    1
     2    27    28    2
     3    27    29    2
     4    27    24    1
     5    24    23    1
     6    17    23    1
     7    17    18    1
     8    18    19    1
     9    19    20    1
    10    20     1    1
    11     1     3    1
    12     3     4   ar
    13     4     5   ar
    14     5     6   ar
    15     6     7   ar
    16     6     8    1
    17     8     9    1
    18     9    10    1
    19    10    11    1
    20    11    12   ar
    21    12    13   ar
    22    13    14   ar
    23    14    15   ar
    24    15    16   ar
    25    20    21    1
    26    21    22    1
    27    22    17    1
    28     7     3   ar
    29    16    11   ar
    30    16     5    1
    31    24    25    1
    32     1     2    1
@<TRIPOS>MOLECULE
*****
 29 32 0 0 0
SMALL
GASTEIGER

@<TRIPOS>ATOM
      1 N         140.9850  139.6579  164.8703 N.pl3   1  UNL1       -0.3146
      2 H         141.1758  138.7865  164.4539 H       1  UNL1        0.1486
      3 C         140.8408  140.8821  164.0156 C.ar    1  UNL1        0.1595
      4 N         140.6348  140.9009  162.5300 N.ar    1  UNL1       -0.2246
      5 C         140.5440  142.3329  162.0927 C.ar    1  UNL1        0.0857
      6 C         140.6940  143.1990  163.3081 C.ar    1  UNL1        0.0284
      7 S         140.8775  142.3025  164.4965 S.2     1  UNL1       -0.0561
      8 C         140.6748  144.6963  163.3977 C.3     1  UNL1        0.0466
      9 C         140.5009  145.6971  162.2939 C.3     1  UNL1        0.0674
     10 S         140.3032  145.4478  160.8281 S.3     1  UNL1       -0.1132
     11 C         140.2306  144.1362  160.1038 C.ar    1  UNL1        0.0267
     12 C         140.0226  144.3339  158.6316 C.ar    1  UNL1        0.0062
     13 C         139.9218  143.1454  157.7221 C.ar    1  UNL1        0.0005
     14 C         140.0289  141.7591  158.2849 C.ar    1  UNL1        0.0001
     15 C         140.2369  141.5614  159.7572 C.ar    1  UNL1        0.0020
     16 C         140.3378  142.7499  160.6666 C.ar    1  UNL1        0.0236
     17 C         140.5454  139.9685  169.3380 C.3     1  UNL1        0.0175
     18 C         141.9099  139.8604  168.7244 C.3     1  UNL1        0.0031
     19 C         142.0563  139.7568  167.2351 C.3     1  UNL1        0.0196
     20 C         140.8385  139.7614  166.3596 C.3     1  UNL1        0.0708
     21 C         139.4740  139.8695  166.9733 C.3     1  UNL1        0.0196
     22 C         139.3275  139.9730  168.4625 C.3     1  UNL1        0.0031
     23 C         140.3989  140.0720  170.8273 C.3     1  UNL1        0.0910
     24 N         140.7260  141.3588  171.5254 N.3     1  UNL1       -0.1833
     25 H         140.1407  141.3981  172.3598 H       1  UNL1        0.1484
     26 C         140.3729  143.9724  170.0958 C.3     1  UNL1        0.1957
     27 S         140.5495  142.6656  170.8106 S.O2    1  UNL1        0.0426
     28 O         142.0388  142.8326  170.7479 O.2     1  UNL1       -0.1575
     29 O         139.0601  142.4987  170.8733 O.2     1  UNL1       -0.1575
@<TRIPOS>BOND
     1    26    27    1
     2    27    28    2
     3    27    29    2
     4    27    24    1
     5    24    23    1
     6    17    23    1
     7    17    18    1
     8    18    19    1
     9    19    20    1
    10    20     1    1
    11     1     3    1
    12     3     4   ar
    13     4     5   ar
    14     5     6   ar
    15     6     7   ar
    16     6     8    1
    17     8     9    1
    18     9    10    1
    19    10    11    1
    20    11    12   ar
    21    12    13   ar
    22    13    14   ar
    23    14    15   ar
    24    15    16   ar
    25    20    21    1
    26    21    22    1
    27    22    17    1
    28     7     3   ar
    29    16    11   ar
    30    16     5    1
    31    24    25    1
    32     1     2    1
@<TRIPOS>MOLECULE
*****
 29 32 0 0 0
SMALL
GASTEIGER

@<TRIPOS>ATOM
      1 N         144.6399  139.8037  162.5949 N.pl3   1  UNL1       -0.3146
      2 H         145.6192  139.8395  162.6887 H       1  UNL1        0.1486
      3 C         143.7621  140.1032  163.7738 C.ar    1  UNL1        0.1595
      4 N         142.4470  139.4509  164.0821 N.ar    1  UNL1       -0.2246
      5 C         141.9174  140.0522  165.3502 C.ar    1  UNL1        0.0857
      6 C         142.9053  141.0760  165.8256 C.ar    1  UNL1        0.0284
      7 S         144.0453  141.1075  164.8513 S.2     1  UNL1       -0.0561
      8 C         142.8349  141.9484  167.0437 C.3     1  UNL1        0.0466
      9 C         141.7593  142.0126  168.0873 C.3     1  UNL1        0.0674
     10 S         140.4885  141.2201  168.1704 S.3     1  UNL1       -0.1132
     11 C         139.9793  140.1677  167.2306 C.ar    1  UNL1        0.0267
     12 C         138.6581  139.6210  167.6840 C.ar    1  UNL1        0.0062
     13 C         137.9730  138.5544  166.8822 C.ar    1  UNL1        0.0005
     14 C         138.6089  138.0346  165.6270 C.ar    1  UNL1        0.0001
     15 C         139.9301  138.5814  165.1737 C.ar    1  UNL1        0.0020
     16 C         140.6152  139.6479  165.9755 C.ar    1  UNL1        0.0236
     17 C         142.7967  138.7415  158.6295 C.3     1  UNL1        0.0175
     18 C         143.0639  137.6691  159.6437 C.3     1  UNL1        0.0031
     19 C         143.6783  138.0232  160.9654 C.3     1  UNL1        0.0196
     20 C         144.0255  139.4496  161.2730 C.3     1  UNL1        0.0708
     21 C         143.7583  140.5221  160.2588 C.3     1  UNL1        0.0196
     22 C         143.1439  140.1679  158.9371 C.3     1  UNL1        0.0031
     23 C         142.1823  138.3874  157.3076 C.3     1  UNL1        0.0910
     24 N         143.0552  137.9572  156.1661 N.3     1  UNL1       -0.1833
     25 H         142.5657  138.2130  155.3085 H       1  UNL1        0.1484
     26 C         143.8462  135.0771  155.8858 C.3     1  UNL1        0.1957
     27 S         143.4508  136.5172  156.0259 S.O2    1  UNL1        0.0426
     28 O         144.8104  136.9367  155.5512 O.2     1  UNL1       -0.1575
     29 O         142.0911  136.0975  156.5006 O.2     1  UNL1       -0.1575
@<TRIPOS>BOND
     1    26    27    1
     2    27    28    2
     3    27    29    2
     4    27    24    1
     5    24    23    1
     6    17    23    1
     7    17    18    1
     8    18    19    1
     9    19    20    1
    10    20     1    1
    11     1     3    1
    12     3     4   ar
    13     4     5   ar
    14     5     6   ar
    15     6     7   ar
    16     6     8    1
    17     8     9    1
    18     9    10    1
    19    10    11    1
    20    11    12   ar
    21    12    13   ar
    22    13    14   ar
    23    14    15   ar
    24    15    16   ar
    25    20    21    1
    26    21    22    1
    27    22    17    1
    28     7     3   ar
    29    16    11   ar
    30    16     5    1
    31    24    25    1
    32     1     2    1
@<TRIPOS>MOLECULE
*****
 29 32 0 0 0
SMALL
GASTEIGER

@<TRIPOS>ATOM
      1 N         138.9841  139.1078  158.1082 N.pl3   1  UNL1       -0.3146
      2 H         138.2878  139.4387  157.4959 H       1  UNL1        0.1486
      3 C         138.8751  139.3717  159.5808 C.ar    1  UNL1        0.1595
      4 N         138.6262  140.7050  160.2215 N.ar    1  UNL1       -0.2246
      5 C         138.5931  140.5060  161.7079 C.ar    1  UNL1        0.0857
      6 C         138.8215  139.0497  161.9857 C.ar    1  UNL1        0.0284
      7 S         138.9957  138.3488  160.6712 S.2     1  UNL1       -0.0561
      8 C         138.8786  138.3482  163.3103 C.3     1  UNL1        0.0466
      9 C         138.7215  138.9295  164.6842 C.3     1  UNL1        0.0674
     10 S         138.4684  140.3561  165.0726 S.3     1  UNL1       -0.1132
     11 C         138.3100  141.5536  164.1833 C.ar    1  UNL1        0.0267
     12 C         138.0684  142.8006  164.9812 C.ar    1  UNL1        0.0062
     13 C         137.8823  144.1143  164.2816 C.ar    1  UNL1        0.0005
     14 C         137.9378  144.1810  162.7841 C.ar    1  UNL1        0.0001
     15 C         138.1794  142.9340  161.9862 C.ar    1  UNL1        0.0020
     16 C         138.3655  141.6203  162.6858 C.ar    1  UNL1        0.0236
     17 C         142.4938  136.8032  156.4893 C.3     1  UNL1        0.0175
     18 C         141.1254  136.5878  155.9139 C.3     1  UNL1        0.0031
     19 C         139.9555  137.3560  156.4536 C.3     1  UNL1        0.0196
     20 C         140.1540  138.3395  157.5686 C.3     1  UNL1        0.0708
     21 C         141.5225  138.5549  158.1439 C.3     1  UNL1        0.0196
     22 C         142.6923  137.7867  157.6042 C.3     1  UNL1        0.0031
     23 C         143.6637  136.0349  155.9496 C.3     1  UNL1        0.0910
     24 N         143.9707  134.6657  156.4797 N.3     1  UNL1       -0.1833
     25 H         144.8960  134.4155  156.1310 H       1  UNL1        0.1484
     26 C         142.1530  132.3669  155.8382 C.3     1  UNL1        0.1957
     27 S         143.0618  133.5163  156.1590 S.O2    1  UNL1        0.0426
     28 O         142.9442  133.2013  157.6208 O.2     1  UNL1       -0.1575
     29 O         143.1795  133.8312  154.6971 O.2     1  UNL1       -0.1575
@<TRIPOS>BOND
     1    26    27    1
     2    27    28    2
     3    27    29    2
     4    27    24    1
     5    24    23    1
     6    17    23    1
     7    17    18    1
     8    18    19    1
     9    19    20    1
    10    20     1    1
    11     1     3    1
    12     3     4   ar
    13     4     5   ar
    14     5     6   ar
    15     6     7   ar
    16     6     8    1
    17     8     9    1
    18     9    10    1
    19    10    11    1
    20    11    12   ar
    21    12    13   ar
    22    13    14   ar
    23    14    15   ar
    24    15    16   ar
    25    20    21    1
    26    21    22    1
    27    22    17    1
    28     7     3   ar
    29    16    11   ar
    30    16     5    1
    31    24    25    1
    32     1     2    1
@<TRIPOS>MOLECULE
*****
 29 32 0 0 0
SMALL
GASTEIGER

@<TRIPOS>ATOM
      1 N         142.3528  138.3431  158.7550 N.pl3   1  UNL1       -0.3146
      2 H         142.9100  139.1410  158.6062 H       1  UNL1        0.1486
      3 C         142.3587  137.2267  157.7532 C.ar    1  UNL1        0.1595
      4 N         143.1414  135.9515  157.8588 N.ar    1  UNL1       -0.2246
      5 C         142.8492  135.1262  156.6407 C.ar    1  UNL1        0.0857
      6 C         141.8860  135.8914  155.7825 C.ar    1  UNL1        0.0284
      7 S         141.5828  137.1895  156.4700 S.2     1  UNL1       -0.0561
      8 C         141.2900  135.4956  154.4641 C.3     1  UNL1        0.0466
      9 C         141.5100  134.2369  153.6783 C.3     1  UNL1        0.0674
     10 S         142.3803  133.0632  154.0170 S.3     1  UNL1       -0.1132
     11 C         143.2457  132.8581  155.2250 C.ar    1  UNL1        0.0267
     12 C         143.9557  131.5379  155.1727 C.ar    1  UNL1        0.0062
     13 C         144.8744  131.1358  156.2881 C.ar    1  UNL1        0.0005
     14 C         145.0831  132.0539  157.4558 C.ar    1  UNL1        0.0001
     15 C         144.3731  133.3741  157.5081 C.ar    1  UNL1        0.0020
     16 C         143.4544  133.7762  156.3926 C.ar    1  UNL1        0.0236
     17 C         139.7886  138.0453  162.4409 C.3     1  UNL1        0.0175
     18 C         139.1695  138.4094  161.1240 C.3     1  UNL1        0.0031
     19 C         140.0243  138.5087  159.8955 C.3     1  UNL1        0.0196
     20 C         141.4981  138.2438  159.9837 C.3     1  UNL1        0.0708
     21 C         142.1171  137.8796  161.3006 C.3     1  UNL1        0.0196
     22 C         141.2623  137.7804  162.5292 C.3     1  UNL1        0.0031
     23 C         138.9338  137.9460  163.6696 C.3     1  UNL1        0.0910
     24 N         138.4883  139.1921  164.3760 N.3     1  UNL1       -0.1833
     25 H         138.8429  139.9803  163.8344 H       1  UNL1        0.1484
     26 C         139.2919  139.6687  167.2267 C.3     1  UNL1        0.1957
     27 S         138.8900  139.4304  165.8014 S.O2    1  UNL1        0.0426
     28 O         137.6158  138.7909  166.2676 O.2     1  UNL1       -0.1575
     29 O         140.1644  140.0699  165.3352 O.2     1  UNL1       -0.1575
@<TRIPOS>BOND
     1    26    27    1
     2    27    28    2
     3    27    29    2
     4    27    24    1
     5    24    23    1
     6    17    23    1
     7    17    18    1
     8    18    19    1
     9    19    20    1
    10    20     1    1
    11     1     3    1
    12     3     4   ar
    13     4     5   ar
    14     5     6   ar
    15     6     7   ar
    16     6     8    1
    17     8     9    1
    18     9    10    1
    19    10    11    1
    20    11    12   ar
    21    12    13   ar
    22    13    14   ar
    23    14    15   ar
    24    15    16   ar
    25    20    21    1
    26    21    22    1
    27    22    17    1
    28     7     3   ar
    29    16    11   ar
    30    16     5    1
    31    24    25    1
    32     1     2    1
@<TRIPOS>MOLECULE
*****
 29 32 0 0 0
SMALL
GASTEIGER

@<TRIPOS>ATOM
      1 N         142.6113  138.2892  158.4347 N.pl3   1  UNL1       -0.3146
      2 H         143.3563  138.9327  158.4255 H       1  UNL1        0.1486
      3 C         142.6238  137.1140  157.5027 C.ar    1  UNL1        0.1595
      4 N         143.3404  135.8160  157.7300 N.ar    1  UNL1       -0.2246
      5 C         143.0813  134.9303  156.5474 C.ar    1  UNL1        0.0857
      6 C         142.2045  135.6809  155.5894 C.ar    1  UNL1        0.0284
      7 S         141.9218  137.0304  156.1797 S.2     1  UNL1       -0.0561
      8 C         141.6676  135.2300  154.2633 C.3     1  UNL1        0.0466
      9 C         141.8748  133.9172  153.5678 C.3     1  UNL1        0.0674
     10 S         142.6702  132.7311  154.0267 S.3     1  UNL1       -0.1132
     11 C         143.4547  132.5647  155.2943 C.ar    1  UNL1        0.0267
     12 C         144.1059  131.2152  155.3626 C.ar    1  UNL1        0.0062
     13 C         144.9400  130.8444  156.5529 C.ar    1  UNL1        0.0005
     14 C         145.1229  131.8231  157.6748 C.ar    1  UNL1        0.0001
     15 C         144.4718  133.1726  157.6064 C.ar    1  UNL1        0.0020
     16 C         143.6377  133.5434  156.4162 C.ar    1  UNL1        0.0236
     17 C         139.1685  138.8736  161.2729 C.3     1  UNL1        0.0175
     18 C         140.4656  138.3105  161.7732 C.3     1  UNL1        0.0031
     19 C         141.6132  138.1157  160.8271 C.3     1  UNL1        0.0196
     20 C         141.4637  138.4840  159.3808 C.3     1  UNL1        0.0708
     21 C         140.1665  139.0472  158.8805 C.3     1  UNL1        0.0196
     22 C         139.0190  139.2420  159.8266 C.3     1  UNL1        0.0031
     23 C         138.0208  139.0684  162.2190 C.3     1  UNL1        0.0910
     24 N         137.2770  140.3710  162.2376 N.3     1  UNL1       -0.1833
     25 H         137.3882  140.7868  161.3129 H       1  UNL1        0.1484
     26 C         138.0095  142.4880  164.2329 C.3     1  UNL1        0.1957
     27 S         137.6433  141.4295  163.2353 S.O2    1  UNL1        0.0426
     28 O         137.8753  140.3714  164.2729 O.2     1  UNL1       -0.1575
     29 O         137.4113  142.4876  162.1977 O.2     1  UNL1       -0.1575
@<TRIPOS>BOND
     1    26    27    1
     2    27    28    2
     3    27    29    2
     4    27    24    1
     5    24    23    1
     6    17    23    1
     7    17    18    1
     8    18    19    1
     9    19    20    1
    10    20     1    1
    11     1     3    1
    12     3     4   ar
    13     4     5   ar
    14     5     6   ar
    15     6     7   ar
    16     6     8    1
    17     8     9    1
    18     9    10    1
    19    10    11    1
    20    11    12   ar
    21    12    13   ar
    22    13    14   ar
    23    14    15   ar
    24    15    16   ar
    25    20    21    1
    26    21    22    1
    27    22    17    1
    28     7     3   ar
    29    16    11   ar
    30    16     5    1
    31    24    25    1
    32     1     2    1
@<TRIPOS>MOLECULE
*****
 29 32 0 0 0
SMALL
GASTEIGER

@<TRIPOS>ATOM
      1 N         139.4623  138.5355  164.1271 N.pl3   1  UNL1       -0.3146
      2 H         139.3115  137.5956  163.8758 H       1  UNL1        0.1486
      3 C         139.8010  139.5484  163.0738 C.ar    1  UNL1        0.1595
      4 N         139.6136  141.0325  163.1852 N.ar    1  UNL1       -0.2246
      5 C         140.0833  141.6563  161.9044 C.ar    1  UNL1        0.0857
      6 C         140.5609  140.5577  161.0016 C.ar    1  UNL1        0.0284
      7 S         140.3865  139.2550  161.7243 S.2     1  UNL1       -0.0561
      8 C         141.1235  140.6647  159.6152 C.3     1  UNL1        0.0466
      9 C         141.3474  141.8967  158.7892 C.3     1  UNL1        0.0674
     10 S         141.0639  143.3259  159.1457 S.3     1  UNL1       -0.1132
     11 C         140.4866  143.8762  160.4161 C.ar    1  UNL1        0.0267
     12 C         140.3668  145.3704  160.3615 C.ar    1  UNL1        0.0062
     13 C         139.8106  146.1215  161.5347 C.ar    1  UNL1        0.0005
     14 C         139.3742  145.3785  162.7624 C.ar    1  UNL1        0.0001
     15 C         139.4940  143.8843  162.8170 C.ar    1  UNL1        0.0020
     16 C         140.0502  143.1331  161.6439 C.ar    1  UNL1        0.0236
     17 C         139.1357  139.7928  168.4355 C.3     1  UNL1        0.0175
     18 C         140.4129  140.0206  167.6825 C.3     1  UNL1        0.0031
     19 C         140.5217  139.6015  166.2464 C.3     1  UNL1        0.0196
     20 C         139.3535  138.9546  165.5633 C.3     1  UNL1        0.0708
     21 C         138.0763  138.7268  166.3163 C.3     1  UNL1        0.0196
     22 C         137.9675  139.1459  167.7524 C.3     1  UNL1        0.0031
     23 C         139.0269  140.2119  169.8717 C.3     1  UNL1        0.0910
     24 N         139.2953  141.6358  170.2598 N.3     1  UNL1       -0.1833
     25 H         139.0327  142.2133  169.4611 H       1  UNL1        0.1484
     26 C         142.0609  142.4754  171.0636 C.3     1  UNL1        0.1957
     27 S         140.6781  142.0556  170.6618 S.O2    1  UNL1        0.0426
     28 O         140.6503  141.0673  171.7898 O.2     1  UNL1       -0.1575
     29 O         140.7059  143.0439  169.5337 O.2     1  UNL1       -0.1575
@<TRIPOS>BOND
     1    26    27    1
     2    27    28    2
     3    27    29    2
     4    27    24    1
     5    24    23    1
     6    17    23    1
     7    17    18    1
     8    18    19    1
     9    19    20    1
    10    20     1    1
    11     1     3    1
    12     3     4   ar
    13     4     5   ar
    14     5     6   ar
    15     6     7   ar
    16     6     8    1
    17     8     9    1
    18     9    10    1
    19    10    11    1
    20    11    12   ar
    21    12    13   ar
    22    13    14   ar
    23    14    15   ar
    24    15    16   ar
    25    20    21    1
    26    21    22    1
    27    22    17    1
    28     7     3   ar
    29    16    11   ar
    30    16     5    1
    31    24    25    1
    32     1     2    1
@<TRIPOS>MOLECULE
*****
 29 32 0 0 0
SMALL
GASTEIGER

@<TRIPOS>ATOM
      1 N         137.2103  141.0663  163.5864 N.pl3   1  UNL1       -0.3146
      2 H         136.2378  141.1185  163.7304 H       1  UNL1        0.1486
      3 C         137.7750  141.2429  162.2080 C.ar    1  UNL1        0.1595
      4 N         138.5334  142.4384  161.7125 N.ar    1  UNL1       -0.2246
      5 C         138.9075  142.1894  160.2813 C.ar    1  UNL1        0.0857
      6 C         138.3803  140.8400  159.8925 C.ar    1  UNL1        0.0284
      7 S         137.6804  140.2551  161.0832 S.2     1  UNL1       -0.0561
      8 C         138.4931  140.1368  158.5724 C.3     1  UNL1        0.0466
      9 C         139.1609  140.6093  157.3150 C.3     1  UNL1        0.0674
     10 S         139.8809  141.9017  157.0674 S.3     1  UNL1       -0.1132
     11 C         140.1109  143.0408  158.0158 C.ar    1  UNL1        0.0267
     12 C         140.8814  144.1501  157.3634 C.ar    1  UNL1        0.0062
     13 C         141.2187  145.3875  158.1413 C.ar    1  UNL1        0.0005
     14 C         140.7855  145.5155  159.5716 C.ar    1  UNL1        0.0001
     15 C         140.0150  144.4062  160.2241 C.ar    1  UNL1        0.0020
     16 C         139.6777  143.1689  159.4462 C.ar    1  UNL1        0.0236
     17 C         139.9614  140.2974  167.0635 C.3     1  UNL1        0.0175
     18 C         138.9790  139.2469  166.6379 C.3     1  UNL1        0.0031
     19 C         138.0620  139.5032  165.4789 C.3     1  UNL1        0.0196
     20 C         138.1274  140.8100  164.7455 C.3     1  UNL1        0.0708
     21 C         139.1098  141.8605  165.1711 C.3     1  UNL1        0.0196
     22 C         140.0268  141.6042  166.3301 C.3     1  UNL1        0.0031
     23 C         140.8785  140.0411  168.2225 C.3     1  UNL1        0.0910
     24 N         140.3767  140.2055  169.6265 N.3     1  UNL1       -0.1833
     25 H         139.5197  139.6571  169.6991 H       1  UNL1        0.1484
     26 C         139.7461  142.9415  170.6831 C.3     1  UNL1        0.1957
     27 S         140.0613  141.5735  170.1548 S.O2    1  UNL1        0.0426
     28 O         138.6532  141.1402  170.4367 O.2     1  UNL1       -0.1575
     29 O         141.4695  142.0068  169.8730 O.2     1  UNL1       -0.1575
@<TRIPOS>BOND
     1    26    27    1
     2    27    28    2
     3    27    29    2
     4    27    24    1
     5    24    23    1
     6    17    23    1
     7    17    18    1
     8    18    19    1
     9    19    20    1
    10    20     1    1
    11     1     3    1
    12     3     4   ar
    13     4     5   ar
    14     5     6   ar
    15     6     7   ar
    16     6     8    1
    17     8     9    1
    18     9    10    1
    19    10    11    1
    20    11    12   ar
    21    12    13   ar
    22    13    14   ar
    23    14    15   ar
    24    15    16   ar
    25    20    21    1
    26    21    22    1
    27    22    17    1
    28     7     3   ar
    29    16    11   ar
    30    16     5    1
    31    24    25    1
    32     1     2    1
