@<TRIPOS>MOLECULE
*****
 28 31 0 0 0
SMALL
GASTEIGER

@<TRIPOS>ATOM
      1 O         141.2326  143.5483  161.8864 O.2     1  UNL1       -0.2522
      2 C         140.4030  142.4316  161.3254 C.2     1  UNL1        0.3080
      3 N         140.1936  142.3239  159.8441 N.am    1  UNL1       -0.2681
      4 N         139.7829  141.4226  162.2459 N.am    1  UNL1       -0.2559
      5 C         138.9733  140.3478  161.5828 C.3     1  UNL1        0.1425
      6 C         138.2351  139.2068  162.2179 C.3     1  UNL1        0.2268
      7 O         138.1243  138.8587  163.6726 O.3     1  UNL1       -0.4739
      8 C         138.7242  139.5655  164.8518 C.ar    1  UNL1        0.1362
      9 C         138.3660  138.8845  166.1394 C.ar    1  UNL1        0.0366
     10 C         138.8668  139.4331  167.4426 C.ar    1  UNL1        0.0031
     11 C         139.7257  140.6628  167.4582 C.ar    1  UNL1        0.0000
     12 C         140.0838  141.3438  166.1705 C.ar    1  UNL1        0.0004
     13 C         139.5831  140.7952  164.8674 C.ar    1  UNL1        0.0317
     14 C         140.0542  141.6216  163.7076 C.3     1  UNL1        0.1248
     15 H         139.6491  141.5909  159.4759 H       1  UNL1        0.1564
     16 C         140.8138  143.3330  158.9236 C.ar    1  UNL1        0.0524
     17 C         142.2396  143.1725  158.4861 C.ar    1  UNL1        0.0148
     18 C         142.8597  144.1816  157.5656 C.ar    1  UNL1        0.0021
     19 C         142.0541  145.3511  157.0827 C.ar    1  UNL1        0.0115
     20 C         140.6283  145.5115  157.5202 C.ar    1  UNL1        0.0589
     21 CL        139.8227  146.6810  157.0372 Cl      1  UNL1       -0.0822
     22 C         140.0082  144.5025  158.4406 C.ar    1  UNL1        0.0261
     23 C         140.2265  141.2114  168.7613 C.ar    1  UNL1        0.0031
     24 C         140.4410  140.2939  169.9284 C.ar    1  UNL1        0.0207
     25 C         140.9418  140.8425  171.2316 C.ar    1  UNL1        0.0989
     26 N         141.2280  142.3087  171.3676 N.ar    1  UNL1       -0.2423
     27 C         141.0134  143.2262  170.2005 C.ar    1  UNL1        0.0989
     28 C         140.5126  142.6775  168.8973 C.ar    1  UNL1        0.0207
@<TRIPOS>BOND
     1     1     2    2
     2     2     3   am
     3     3    16    1
     4    16    17   ar
     5    17    18   ar
     6    18    19   ar
     7    19    20   ar
     8    20    21    1
     9    20    22   ar
    10     2     4   am
    11     4     5    1
    12     5     6    1
    13     6     7    1
    14     7     8    1
    15     8     9   ar
    16     9    10   ar
    17    10    11   ar
    18    11    23    1
    19    23    24   ar
    20    24    25   ar
    21    25    26   ar
    22    26    27   ar
    23    27    28   ar
    24    11    12   ar
    25    12    13   ar
    26    13    14    1
    27    22    16   ar
    28    14     4    1
    29    13     8   ar
    30    28    23   ar
    31     3    15    1
@<TRIPOS>MOLECULE
*****
 28 31 0 0 0
SMALL
GASTEIGER

@<TRIPOS>ATOM
      1 O         142.7393  137.9427  159.9725 O.2     1  UNL1       -0.2522
      2 C         141.4526  138.4044  159.3551 C.2     1  UNL1        0.3080
      3 N         141.2442  138.2809  157.8748 N.am    1  UNL1       -0.2681
      4 N         140.3743  138.9896  160.2181 N.am    1  UNL1       -0.2559
      5 C         139.1286  139.4195  159.5013 C.3     1  UNL1        0.1425
      6 C         137.8852  140.0335  160.0731 C.3     1  UNL1        0.2268
      7 O         137.5804  140.3692  161.5028 O.3     1  UNL1       -0.4739
      8 C         138.4435  140.1740  162.7140 C.ar    1  UNL1        0.1362
      9 C         137.7551  140.6474  163.9597 C.ar    1  UNL1        0.0366
     10 C         138.4479  140.5416  165.2860 C.ar    1  UNL1        0.0031
     11 C         139.8292  139.9623  165.3664 C.ar    1  UNL1        0.0000
     12 C         140.5176  139.4888  164.1206 C.ar    1  UNL1        0.0004
     13 C         139.8248  139.5947  162.7944 C.ar    1  UNL1        0.0317
     14 C         140.6840  139.0676  161.6836 C.3     1  UNL1        0.1248
     15 H         140.3997  138.5839  157.4696 H       1  UNL1        0.1564
     16 C         142.3226  137.6956  157.0118 C.ar    1  UNL1        0.0524
     17 C         143.1881  138.5949  156.1800 C.ar    1  UNL1        0.0148
     18 C         144.2665  138.0096  155.3170 C.ar    1  UNL1        0.0021
     19 C         144.4792  136.5251  155.2860 C.ar    1  UNL1        0.0115
     20 C         143.6136  135.6259  156.1179 C.ar    1  UNL1        0.0589
     21 CL        143.8264  134.1413  156.0868 Cl      1  UNL1       -0.0822
     22 C         142.5353  136.2111  156.9808 C.ar    1  UNL1        0.0261
     23 C         140.5220  139.8564  166.6925 C.ar    1  UNL1        0.0031
     24 C         141.9812  139.5136  166.7512 C.ar    1  UNL1        0.0207
     25 C         142.6740  139.4078  168.0773 C.ar    1  UNL1        0.0989
     26 N         141.9077  139.6447  169.3449 N.ar    1  UNL1       -0.2423
     27 C         140.4486  139.9875  169.2863 C.ar    1  UNL1        0.0989
     28 C         139.7557  140.0933  167.9600 C.ar    1  UNL1        0.0207
@<TRIPOS>BOND
     1     1     2    2
     2     2     3   am
     3     3    16    1
     4    16    17   ar
     5    17    18   ar
     6    18    19   ar
     7    19    20   ar
     8    20    21    1
     9    20    22   ar
    10     2     4   am
    11     4     5    1
    12     5     6    1
    13     6     7    1
    14     7     8    1
    15     8     9   ar
    16     9    10   ar
    17    10    11   ar
    18    11    23    1
    19    23    24   ar
    20    24    25   ar
    21    25    26   ar
    22    26    27   ar
    23    27    28   ar
    24    11    12   ar
    25    12    13   ar
    26    13    14    1
    27    22    16   ar
    28    14     4    1
    29    13     8   ar
    30    28    23   ar
    31     3    15    1
@<TRIPOS>MOLECULE
*****
 28 31 0 0 0
SMALL
GASTEIGER

@<TRIPOS>ATOM
      1 O         142.5662  141.7509  161.6964 O.2     1  UNL1       -0.2522
      2 C         141.6362  140.6727  161.2246 C.2     1  UNL1        0.3080
      3 N         141.6214  140.2748  159.7785 N.am    1  UNL1       -0.2681
      4 N         140.7210  139.9925  162.1991 N.am    1  UNL1       -0.2559
      5 C         139.8324  138.9295  161.6242 C.3     1  UNL1        0.1425
      6 C         138.8187  138.0766  162.3279 C.3     1  UNL1        0.2268
      7 O         138.4433  138.0761  163.7801 O.3     1  UNL1       -0.4739
      8 C         138.9887  138.9284  164.8874 C.ar    1  UNL1        0.1362
      9 C         138.3360  138.6065  166.1990 C.ar    1  UNL1        0.0366
     10 C         138.7390  139.3479  167.4393 C.ar    1  UNL1        0.0031
     11 C         139.7947  140.4111  167.3678 C.ar    1  UNL1        0.0000
     12 C         140.4474  140.7329  166.0561 C.ar    1  UNL1        0.0004
     13 C         140.0444  139.9916  164.8160 C.ar    1  UNL1        0.0317
     14 C         140.8153  140.4651  163.6195 C.3     1  UNL1        0.1248
     15 H         141.0110  139.5671  159.4689 H       1  UNL1        0.1564
     16 C         142.5367  140.9551  158.8040 C.ar    1  UNL1        0.0524
     17 C         143.8871  140.3717  158.5106 C.ar    1  UNL1        0.0148
     18 C         144.8023  141.0520  157.5361 C.ar    1  UNL1        0.0021
     19 C         144.3671  142.3156  156.8551 C.ar    1  UNL1        0.0115
     20 C         143.0168  142.8989  157.1485 C.ar    1  UNL1        0.0589
     21 CL        142.5816  144.1626  156.4674 Cl      1  UNL1       -0.0822
     22 C         142.1016  142.2187  158.1229 C.ar    1  UNL1        0.0261
     23 C         140.1976  141.1524  168.6079 C.ar    1  UNL1        0.0031
     24 C         140.4132  142.6360  168.5582 C.ar    1  UNL1        0.0207
     25 C         140.8162  143.3774  169.7983 C.ar    1  UNL1        0.0989
     26 N         141.0036  142.6351  171.0883 N.ar    1  UNL1       -0.2423
     27 C         140.7881  141.1515  171.1380 C.ar    1  UNL1        0.0989
     28 C         140.3851  140.4102  169.8978 C.ar    1  UNL1        0.0207
@<TRIPOS>BOND
     1     1     2    2
     2     2     3   am
     3     3    16    1
     4    16    17   ar
     5    17    18   ar
     6    18    19   ar
     7    19    20   ar
     8    20    21    1
     9    20    22   ar
    10     2     4   am
    11     4     5    1
    12     5     6    1
    13     6     7    1
    14     7     8    1
    15     8     9   ar
    16     9    10   ar
    17    10    11   ar
    18    11    23    1
    19    23    24   ar
    20    24    25   ar
    21    25    26   ar
    22    26    27   ar
    23    27    28   ar
    24    11    12   ar
    25    12    13   ar
    26    13    14    1
    27    22    16   ar
    28    14     4    1
    29    13     8   ar
    30    28    23   ar
    31     3    15    1
@<TRIPOS>MOLECULE
*****
 28 31 0 0 0
SMALL
GASTEIGER

@<TRIPOS>ATOM
      1 O         141.3234  138.1721  160.7279 O.2     1  UNL1       -0.2522
      2 C         142.2504  139.2412  160.2302 C.2     1  UNL1        0.3080
      3 N         142.6046  139.3084  158.7742 N.am    1  UNL1       -0.2681
      4 N         142.8230  140.2431  161.1884 N.am    1  UNL1       -0.2559
      5 C         143.7380  141.2689  160.5878 C.3     1  UNL1        0.1425
      6 C         144.4610  142.3917  161.2711 C.3     1  UNL1        0.2268
      7 O         144.4475  142.7659  162.7235 O.3     1  UNL1       -0.4739
      8 C         143.7078  142.1100  163.8516 C.ar    1  UNL1        0.1362
      9 C         143.9706  142.8029  165.1556 C.ar    1  UNL1        0.0366
     10 C         143.3245  142.3036  166.4139 C.ar    1  UNL1        0.0031
     11 C         142.4155  141.1112  166.3681 C.ar    1  UNL1        0.0000
     12 C         142.1527  140.4182  165.0639 C.ar    1  UNL1        0.0004
     13 C         142.7988  140.9176  163.8057 C.ar    1  UNL1        0.0317
     14 C         142.4051  140.0868  162.6204 C.3     1  UNL1        0.1248
     15 H         143.2130  140.0101  158.4475 H       1  UNL1        0.1564
     16 C         142.0319  138.3065  157.8159 C.ar    1  UNL1        0.0524
     17 C         140.6652  138.5196  157.2359 C.ar    1  UNL1        0.0148
     18 C         140.0925  137.5177  156.2777 C.ar    1  UNL1        0.0021
     19 C         140.8866  136.3026  155.8995 C.ar    1  UNL1        0.0115
     20 C         142.2534  136.0896  156.4795 C.ar    1  UNL1        0.0589
     21 CL        143.0475  134.8745  156.1012 Cl      1  UNL1       -0.0822
     22 C         142.8260  137.0914  157.4377 C.ar    1  UNL1        0.0261
     23 C         141.7694  140.6119  167.6263 C.ar    1  UNL1        0.0031
     24 C         140.2863  140.7407  167.8099 C.ar    1  UNL1        0.0207
     25 C         139.6402  140.2413  169.0681 C.ar    1  UNL1        0.0989
     26 N         140.4773  139.6131  170.1428 N.ar    1  UNL1       -0.2423
     27 C         141.9604  139.4843  169.9591 C.ar    1  UNL1        0.0989
     28 C         142.6065  139.9837  168.7008 C.ar    1  UNL1        0.0207
@<TRIPOS>BOND
     1     1     2    2
     2     2     3   am
     3     3    16    1
     4    16    17   ar
     5    17    18   ar
     6    18    19   ar
     7    19    20   ar
     8    20    21    1
     9    20    22   ar
    10     2     4   am
    11     4     5    1
    12     5     6    1
    13     6     7    1
    14     7     8    1
    15     8     9   ar
    16     9    10   ar
    17    10    11   ar
    18    11    23    1
    19    23    24   ar
    20    24    25   ar
    21    25    26   ar
    22    26    27   ar
    23    27    28   ar
    24    11    12   ar
    25    12    13   ar
    26    13    14    1
    27    22    16   ar
    28    14     4    1
    29    13     8   ar
    30    28    23   ar
    31     3    15    1
@<TRIPOS>MOLECULE
*****
 28 31 0 0 0
SMALL
GASTEIGER

@<TRIPOS>ATOM
      1 O         143.5878  141.5717  160.5731 O.2     1  UNL1       -0.2522
      2 C         142.8195  142.7364  160.0226 C.2     1  UNL1        0.3080
      3 N         143.0320  143.1715  158.6029 N.am    1  UNL1       -0.2681
      4 N         141.8387  143.4660  160.8918 N.am    1  UNL1       -0.2559
      5 C         141.1240  144.6149  160.2440 C.3     1  UNL1        0.1425
      6 C         140.0962  145.5318  160.8384 C.3     1  UNL1        0.2268
      7 O         139.5295  145.5263  162.2271 O.3     1  UNL1       -0.4739
      8 C         139.8504  144.6027  163.3646 C.ar    1  UNL1        0.1362
      9 C         139.0546  144.9445  164.5893 C.ar    1  UNL1        0.0366
     10 C         139.2257  144.1400  165.8437 C.ar    1  UNL1        0.0031
     11 C         140.1926  142.9936  165.8734 C.ar    1  UNL1        0.0000
     12 C         140.9885  142.6518  164.6486 C.ar    1  UNL1        0.0004
     13 C         140.8173  143.4564  163.3943 C.ar    1  UNL1        0.0317
     14 C         141.7022  142.9506  162.2937 C.3     1  UNL1        0.1248
     15 H         142.5277  143.9359  158.2416 H       1  UNL1        0.1564
     16 C         144.0129  142.4418  157.7337 C.ar    1  UNL1        0.0524
     17 C         143.5538  141.2925  156.8862 C.ar    1  UNL1        0.0148
     18 C         144.5347  140.5629  156.0170 C.ar    1  UNL1        0.0021
     19 C         145.9746  140.9825  155.9953 C.ar    1  UNL1        0.0115
     20 C         146.4336  142.1318  156.8428 C.ar    1  UNL1        0.0589
     21 CL        147.8737  142.5515  156.8211 Cl      1  UNL1       -0.0822
     22 C         145.4528  142.8615  157.7120 C.ar    1  UNL1        0.0261
     23 C         140.3638  142.1890  167.1277 C.ar    1  UNL1        0.0031
     24 C         140.6701  142.8777  168.4245 C.ar    1  UNL1        0.0207
     25 C         140.8413  142.0732  169.6788 C.ar    1  UNL1        0.0989
     26 N         140.7061  140.5798  169.6363 N.ar    1  UNL1       -0.2423
     27 C         140.3997  139.8911  168.3395 C.ar    1  UNL1        0.0989
     28 C         140.2286  140.6958  167.0851 C.ar    1  UNL1        0.0207
@<TRIPOS>BOND
     1     1     2    2
     2     2     3   am
     3     3    16    1
     4    16    17   ar
     5    17    18   ar
     6    18    19   ar
     7    19    20   ar
     8    20    21    1
     9    20    22   ar
    10     2     4   am
    11     4     5    1
    12     5     6    1
    13     6     7    1
    14     7     8    1
    15     8     9   ar
    16     9    10   ar
    17    10    11   ar
    18    11    23    1
    19    23    24   ar
    20    24    25   ar
    21    25    26   ar
    22    26    27   ar
    23    27    28   ar
    24    11    12   ar
    25    12    13   ar
    26    13    14    1
    27    22    16   ar
    28    14     4    1
    29    13     8   ar
    30    28    23   ar
    31     3    15    1
@<TRIPOS>MOLECULE
*****
 28 31 0 0 0
SMALL
GASTEIGER

@<TRIPOS>ATOM
      1 O         140.6374  143.2879  161.5852 O.2     1  UNL1       -0.2522
      2 C         141.6505  142.3299  161.0322 C.2     1  UNL1        0.3080
      3 N         142.0156  142.3810  159.5783 N.am    1  UNL1       -0.2681
      4 N         142.2984  141.3208  161.9333 N.am    1  UNL1       -0.2559
      5 C         143.2965  140.4111  161.2801 C.3     1  UNL1        0.1425
      6 C         144.1053  139.3107  161.9007 C.3     1  UNL1        0.2268
      7 O         144.1157  138.8483  163.3275 O.3     1  UNL1       -0.4739
      8 C         143.3200  139.3718  164.4863 C.ar    1  UNL1        0.1362
      9 C         143.6325  138.6238  165.7483 C.ar    1  UNL1        0.0366
     10 C         142.9423  138.9911  167.0284 C.ar    1  UNL1        0.0031
     11 C         141.9395  140.1065  167.0465 C.ar    1  UNL1        0.0000
     12 C         141.6271  140.8546  165.7844 C.ar    1  UNL1        0.0004
     13 C         142.3173  140.4873  164.5044 C.ar    1  UNL1        0.0317
     14 C         141.8627  141.3546  163.3681 C.3     1  UNL1        0.1248
     15 H         142.6805  141.7522  159.2154 H       1  UNL1        0.1564
     16 C         141.3676  143.3902  158.6773 C.ar    1  UNL1        0.0524
     17 C         141.9309  144.7767  158.5766 C.ar    1  UNL1        0.0148
     18 C         141.2828  145.7858  157.6756 C.ar    1  UNL1        0.0021
     19 C         140.0716  145.4084  156.8753 C.ar    1  UNL1        0.0115
     20 C         139.5084  144.0218  156.9761 C.ar    1  UNL1        0.0589
     21 CL        138.2971  143.6444  156.1757 Cl      1  UNL1       -0.0822
     22 C         140.1564  143.0127  157.8770 C.ar    1  UNL1        0.0261
     23 C         141.2493  140.4739  168.3265 C.ar    1  UNL1        0.0031
     24 C         141.9899  141.2340  169.3866 C.ar    1  UNL1        0.0207
     25 C         141.2996  141.6013  170.6667 C.ar    1  UNL1        0.0989
     26 N         139.8687  141.2086  170.8867 N.ar    1  UNL1       -0.2423
     27 C         139.1281  140.4485  169.8266 C.ar    1  UNL1        0.0989
     28 C         139.8185  140.0811  168.5465 C.ar    1  UNL1        0.0207
@<TRIPOS>BOND
     1     1     2    2
     2     2     3   am
     3     3    16    1
     4    16    17   ar
     5    17    18   ar
     6    18    19   ar
     7    19    20   ar
     8    20    21    1
     9    20    22   ar
    10     2     4   am
    11     4     5    1
    12     5     6    1
    13     6     7    1
    14     7     8    1
    15     8     9   ar
    16     9    10   ar
    17    10    11   ar
    18    11    23    1
    19    23    24   ar
    20    24    25   ar
    21    25    26   ar
    22    26    27   ar
    23    27    28   ar
    24    11    12   ar
    25    12    13   ar
    26    13    14    1
    27    22    16   ar
    28    14     4    1
    29    13     8   ar
    30    28    23   ar
    31     3    15    1
@<TRIPOS>MOLECULE
*****
 28 31 0 0 0
SMALL
GASTEIGER

@<TRIPOS>ATOM
      1 O         139.5994  141.0892  165.2200 O.2     1  UNL1       -0.2522
      2 C         141.0202  140.6223  165.3352 C.2     1  UNL1        0.3080
      3 N         141.7026  140.6188  166.6709 N.am    1  UNL1       -0.2681
      4 N         141.7585  140.1588  164.1145 N.am    1  UNL1       -0.2559
      5 C         143.1730  139.7130  164.3397 C.3     1  UNL1        0.1425
      6 C         144.1632  139.2007  163.3360 C.3     1  UNL1        0.2268
      7 O         143.9834  139.0077  161.8595 O.3     1  UNL1       -0.4739
      8 C         142.7691  139.2792  161.0217 C.ar    1  UNL1        0.1362
      9 C         143.0129  138.9470  159.5795 C.ar    1  UNL1        0.0366
     10 C         141.9222  139.1464  158.5691 C.ar    1  UNL1        0.0031
     11 C         140.5878  139.6781  159.0012 C.ar    1  UNL1        0.0000
     12 C         140.3440  140.0104  160.4435 C.ar    1  UNL1        0.0004
     13 C         141.4347  139.8109  161.4537 C.ar    1  UNL1        0.0317
     14 C         140.9850  140.2023  162.8302 C.3     1  UNL1        0.1248
     15 H         142.6351  140.3124  166.7465 H       1  UNL1        0.1564
     16 C         140.9641  141.0824  167.8916 C.ar    1  UNL1        0.0524
     17 C         140.1091  140.1200  168.6614 C.ar    1  UNL1        0.0148
     18 C         139.3707  140.5836  169.8820 C.ar    1  UNL1        0.0021
     19 C         139.4874  142.0094  170.3328 C.ar    1  UNL1        0.0115
     20 C         140.3424  142.9717  169.5629 C.ar    1  UNL1        0.0589
     21 CL        140.4591  144.3977  170.0138 Cl      1  UNL1       -0.0822
     22 C         141.0808  142.5082  168.3424 C.ar    1  UNL1        0.0261
     23 C         139.4971  139.8776  157.9909 C.ar    1  UNL1        0.0031
     24 C         139.5912  139.2202  156.6459 C.ar    1  UNL1        0.0207
     25 C         138.5006  139.4196  155.6357 C.ar    1  UNL1        0.0989
     26 N         137.3157  140.2765  155.9704 N.ar    1  UNL1       -0.2423
     27 C         137.2216  140.9339  157.3154 C.ar    1  UNL1        0.0989
     28 C         138.3123  140.7344  158.3256 C.ar    1  UNL1        0.0207
@<TRIPOS>BOND
     1     1     2    2
     2     2     3   am
     3     3    16    1
     4    16    17   ar
     5    17    18   ar
     6    18    19   ar
     7    19    20   ar
     8    20    21    1
     9    20    22   ar
    10     2     4   am
    11     4     5    1
    12     5     6    1
    13     6     7    1
    14     7     8    1
    15     8     9   ar
    16     9    10   ar
    17    10    11   ar
    18    11    23    1
    19    23    24   ar
    20    24    25   ar
    21    25    26   ar
    22    26    27   ar
    23    27    28   ar
    24    11    12   ar
    25    12    13   ar
    26    13    14    1
    27    22    16   ar
    28    14     4    1
    29    13     8   ar
    30    28    23   ar
    31     3    15    1
@<TRIPOS>MOLECULE
*****
 28 31 0 0 0
SMALL
GASTEIGER

@<TRIPOS>ATOM
      1 O         140.2394  140.9155  160.7881 O.2     1  UNL1       -0.2522
      2 C         139.1234  141.4639  159.9491 C.2     1  UNL1        0.3080
      3 N         138.3437  142.6543  160.4234 N.am    1  UNL1       -0.2681
      4 N         138.7872  140.8218  158.6358 N.am    1  UNL1       -0.2559
      5 C         137.6552  141.4478  157.8763 C.3     1  UNL1        0.1425
      6 C         137.0838  141.0453  156.5490 C.3     1  UNL1        0.2268
      7 O         137.5033  139.9175  155.6535 O.3     1  UNL1       -0.4739
      8 C         138.5978  138.9136  155.8640 C.ar    1  UNL1        0.1362
      9 C         138.6846  137.9492  154.7184 C.ar    1  UNL1        0.0366
     10 C         139.7168  136.8608  154.7308 C.ar    1  UNL1        0.0031
     11 C         140.6620  136.7368  155.8889 C.ar    1  UNL1        0.0000
     12 C         140.5752  137.7012  157.0345 C.ar    1  UNL1        0.0004
     13 C         139.5431  138.7895  157.0221 C.ar    1  UNL1        0.0317
     14 C         139.6273  139.6389  158.2556 C.3     1  UNL1        0.1248
     15 H         137.6113  143.0142  159.8727 H       1  UNL1        0.1564
     16 C         138.6800  143.2963  161.7367 C.ar    1  UNL1        0.0524
     17 C         137.7404  143.1640  162.8985 C.ar    1  UNL1        0.0148
     18 C         138.0768  143.8061  164.2118 C.ar    1  UNL1        0.0021
     19 C         139.3525  144.5803  164.3633 C.ar    1  UNL1        0.0115
     20 C         140.2920  144.7125  163.2015 C.ar    1  UNL1        0.0589
     21 CL        141.5678  145.4868  163.3530 Cl      1  UNL1       -0.0822
     22 C         139.9557  144.0705  161.8882 C.ar    1  UNL1        0.0261
     23 C         141.6941  135.6484  155.9013 C.ar    1  UNL1        0.0031
     24 C         141.6571  134.5678  154.8617 C.ar    1  UNL1        0.0207
     25 C         142.6892  133.4794  154.8742 C.ar    1  UNL1        0.0989
     26 N         143.7584  133.4717  155.9263 N.ar    1  UNL1       -0.2423
     27 C         143.7954  134.5523  156.9659 C.ar    1  UNL1        0.0989
     28 C         142.7632  135.6407  156.9534 C.ar    1  UNL1        0.0207
@<TRIPOS>BOND
     1     1     2    2
     2     2     3   am
     3     3    16    1
     4    16    17   ar
     5    17    18   ar
     6    18    19   ar
     7    19    20   ar
     8    20    21    1
     9    20    22   ar
    10     2     4   am
    11     4     5    1
    12     5     6    1
    13     6     7    1
    14     7     8    1
    15     8     9   ar
    16     9    10   ar
    17    10    11   ar
    18    11    23    1
    19    23    24   ar
    20    24    25   ar
    21    25    26   ar
    22    26    27   ar
    23    27    28   ar
    24    11    12   ar
    25    12    13   ar
    26    13    14    1
    27    22    16   ar
    28    14     4    1
    29    13     8   ar
    30    28    23   ar
    31     3    15    1
@<TRIPOS>MOLECULE
*****
 28 31 0 0 0
SMALL
GASTEIGER

@<TRIPOS>ATOM
      1 O         142.3814  141.7164  164.6301 O.2     1  UNL1       -0.2522
      2 C         141.2875  142.7396  164.7095 C.2     1  UNL1        0.3080
      3 N         140.5573  142.9581  166.0014 N.am    1  UNL1       -0.2681
      4 N         140.9238  143.5443  163.4970 N.am    1  UNL1       -0.2559
      5 C         139.8171  144.5394  163.6843 C.3     1  UNL1        0.1425
      6 C         139.2281  145.4835  162.6783 C.3     1  UNL1        0.2268
      7 O         139.6004  145.6656  161.2369 O.3     1  UNL1       -0.4739
      8 C         140.6536  144.9488  160.4450 C.ar    1  UNL1        0.1362
      9 C         140.6997  145.4359  159.0271 C.ar    1  UNL1        0.0366
     10 C         141.6870  144.8470  158.0635 C.ar    1  UNL1        0.0031
     11 C         142.6280  143.7708  158.5178 C.ar    1  UNL1        0.0000
     12 C         142.5818  143.2837  159.9358 C.ar    1  UNL1        0.0004
     13 C         141.5946  143.8726  160.8994 C.ar    1  UNL1        0.0317
     14 C         141.7148  143.2476  162.2577 C.3     1  UNL1        0.1248
     15 H         139.8393  143.6297  166.0535 H       1  UNL1        0.1564
     16 C         140.9210  142.1534  167.2140 C.ar    1  UNL1        0.0524
     17 C         140.0400  141.0226  167.6556 C.ar    1  UNL1        0.0148
     18 C         140.4038  140.2179  168.8681 C.ar    1  UNL1        0.0021
     19 C         141.6485  140.5440  169.6389 C.ar    1  UNL1        0.0115
     20 C         142.5295  141.6748  169.1972 C.ar    1  UNL1        0.0589
     21 CL        143.7744  142.0008  169.9681 Cl      1  UNL1       -0.0822
     22 C         142.1658  142.4794  167.9848 C.ar    1  UNL1        0.0261
     23 C         143.6152  143.1819  157.5542 C.ar    1  UNL1        0.0031
     24 C         144.8677  142.5343  158.0658 C.ar    1  UNL1        0.0207
     25 C         145.8549  141.9454  157.1022 C.ar    1  UNL1        0.0989
     26 N         145.5896  142.0040  155.6269 N.ar    1  UNL1       -0.2423
     27 C         144.3370  142.6515  155.1154 C.ar    1  UNL1        0.0989
     28 C         143.3498  143.2405  156.0791 C.ar    1  UNL1        0.0207
@<TRIPOS>BOND
     1     1     2    2
     2     2     3   am
     3     3    16    1
     4    16    17   ar
     5    17    18   ar
     6    18    19   ar
     7    19    20   ar
     8    20    21    1
     9    20    22   ar
    10     2     4   am
    11     4     5    1
    12     5     6    1
    13     6     7    1
    14     7     8    1
    15     8     9   ar
    16     9    10   ar
    17    10    11   ar
    18    11    23    1
    19    23    24   ar
    20    24    25   ar
    21    25    26   ar
    22    26    27   ar
    23    27    28   ar
    24    11    12   ar
    25    12    13   ar
    26    13    14    1
    27    22    16   ar
    28    14     4    1
    29    13     8   ar
    30    28    23   ar
    31     3    15    1
