@<TRIPOS>MOLECULE
*****
 33 37 0 0 0
SMALL
GASTEIGER

@<TRIPOS>ATOM
      1 C         139.5559  141.1305  165.7599 C.ar    1  UNL1        0.0906
      2 C         140.2163  141.8065  166.9247 C.ar    1  UNL1        0.1497
      3 O         140.1879  143.2860  166.6790 O.2     1  UNL1       -0.4534
      4 C         139.5101  143.5243  165.3622 C.ar    1  UNL1        0.1454
      5 C         139.1981  144.7822  164.6071 C.ar    1  UNL1        0.0406
      6 C         138.4955  144.7079  163.2840 C.ar    1  UNL1        0.0395
      7 C         138.1049  143.3757  162.7159 C.ar    1  UNL1        0.1311
      8 O         137.4022  143.3015  161.3927 O.3     1  UNL1       -0.5058
      9 C         138.4169  142.1178  163.4710 C.ar    1  UNL1        0.0308
     10 C         139.1195  142.1921  164.7942 C.ar    1  UNL1        0.0421
     11 H         137.2073  144.0873  160.9210 H       1  UNL1        0.2922
     12 C         140.8021  141.1231  168.1246 C.ar    1  UNL1        0.0377
     13 C         142.2904  141.0041  168.2677 C.ar    1  UNL1        0.0032
     14 C         142.8762  140.3207  169.4677 C.ar    1  UNL1        0.0032
     15 C         141.9737  139.7563  170.5245 C.ar    1  UNL1        0.0366
     16 C         140.4853  139.8754  170.3813 C.ar    1  UNL1        0.1338
     17 O         139.5827  139.3111  171.4382 O.3     1  UNL1       -0.5055
     18 C         139.8995  140.5588  169.1814 C.ar    1  UNL1        0.0396
     19 H         139.9486  138.8842  172.1877 H       1  UNL1        0.2922
     20 C         140.2151  137.3606  164.7092 C.3     1  UNL1        0.1109
     21 N         140.4056  138.8388  164.8787 N.am    1  UNL1       -0.2991
     22 C         139.3654  139.6523  165.5904 C.2     1  UNL1        0.2490
     23 O         138.1350  138.9876  166.1325 O.2     1  UNL1       -0.2700
     24 H         141.2132  139.2750  164.5228 H       1  UNL1        0.1498
     25 C         138.0263  140.7856  162.9030 C.3     1  UNL1        0.1023
     26 N         139.0147  139.9943  162.0988 N.3     1  UNL1       -0.2687
     27 C         138.7891  138.6285  161.5209 C.3     1  UNL1        0.0726
     28 C         140.0372  138.2198  160.7962 C.3     1  UNL1        0.0235
     29 C         141.0342  139.3329  160.9262 C.3     1  UNL1        0.0707
     30 C         142.1735  140.3086  160.9288 C.3     1  UNL1        0.1458
     31 O         142.9939  139.3528  160.1142 O.3     1  UNL1       -0.3535
     32 C         141.8545  138.3772  160.1116 C.3     1  UNL1        0.1458
     33 C         140.4023  140.4296  161.7313 C.3     1  UNL1        0.0772
@<TRIPOS>BOND
     1    20    21    1
     2    21    22   am
     3    22    23    2
     4    22     1    1
     5     1     2   ar
     6     2    12    1
     7    12    13   ar
     8    13    14   ar
     9    14    15   ar
    10    15    16   ar
    11    16    17    1
    12    16    18   ar
    13     2     3   ar
    14     3     4   ar
    15     4     5   ar
    16     5     6   ar
    17     6     7   ar
    18     7     8    1
    19     7     9   ar
    20     9    25    1
    21    25    26    1
    22    26    27    1
    23    27    28    1
    24    28    29    1
    25    29    30    1
    26    30    31    1
    27    31    32    1
    28    29    33    1
    29     9    10   ar
    30    10     1   ar
    31    18    12   ar
    32    10     4   ar
    33    33    26    1
    34    32    29    1
    35    21    24    1
    36    17    19    1
    37     8    11    1
@<TRIPOS>MOLECULE
*****
 33 37 0 0 0
SMALL
GASTEIGER

@<TRIPOS>ATOM
      1 C         140.3718  141.3159  165.5594 C.ar    1  UNL1        0.0906
      2 C         140.6224  142.0072  166.8667 C.ar    1  UNL1        0.1497
      3 O         139.9444  143.3444  166.8214 O.2     1  UNL1       -0.4534
      4 C         139.2746  143.4796  165.4860 C.ar    1  UNL1        0.1454
      5 C         138.4584  144.5822  164.8795 C.ar    1  UNL1        0.0406
      6 C         137.9064  144.4311  163.4930 C.ar    1  UNL1        0.0395
      7 C         138.1705  143.1774  162.7131 C.ar    1  UNL1        0.1311
      8 O         137.6184  143.0264  161.3265 O.3     1  UNL1       -0.5058
      9 C         138.9867  142.0747  163.3195 C.ar    1  UNL1        0.0308
     10 C         139.5388  142.2258  164.7060 C.ar    1  UNL1        0.0421
     11 H         137.1085  143.7152  160.9477 H       1  UNL1        0.2922
     12 C         141.4124  141.4578  168.0174 C.ar    1  UNL1        0.0377
     13 C         141.0348  140.1394  168.6249 C.ar    1  UNL1        0.0032
     14 C         141.8248  139.5900  169.7756 C.ar    1  UNL1        0.0032
     15 C         142.9924  140.3590  170.3187 C.ar    1  UNL1        0.0366
     16 C         143.3701  141.6774  169.7113 C.ar    1  UNL1        0.1338
     17 O         144.5379  142.4465  170.2544 O.3     1  UNL1       -0.5055
     18 C         142.5801  142.2268  168.5606 C.ar    1  UNL1        0.0396
     19 H         145.0314  142.1033  170.9732 H       1  UNL1        0.2922
     20 C         142.6739  138.4448  164.0736 C.3     1  UNL1        0.1109
     21 N         142.1786  139.8070  164.4598 N.am    1  UNL1       -0.2991
     22 C         140.8671  139.9537  165.1731 C.2     1  UNL1        0.2490
     23 O         140.0511  138.7384  165.5000 O.2     1  UNL1       -0.2700
     24 H         142.7142  140.6046  164.2452 H       1  UNL1        0.1498
     25 C         139.2509  140.8210  162.5396 C.3     1  UNL1        0.1023
     26 N         140.5183  140.6823  161.7495 N.3     1  UNL1       -0.2687
     27 C         141.5757  141.7338  161.5871 C.3     1  UNL1        0.0726
     28 C         142.6619  141.1691  160.7203 C.3     1  UNL1        0.0235
     29 C         142.2758  139.7685  160.3468 C.3     1  UNL1        0.0707
     30 C         142.0927  138.3636  159.8544 C.3     1  UNL1        0.1458
     31 O         143.4050  138.4456  159.1324 O.3     1  UNL1       -0.3535
     32 C         143.5880  139.8506  159.6249 C.3     1  UNL1        0.1458
     33 C         140.9510  139.4677  160.9829 C.3     1  UNL1        0.0772
@<TRIPOS>BOND
     1    20    21    1
     2    21    22   am
     3    22    23    2
     4    22     1    1
     5     1     2   ar
     6     2    12    1
     7    12    13   ar
     8    13    14   ar
     9    14    15   ar
    10    15    16   ar
    11    16    17    1
    12    16    18   ar
    13     2     3   ar
    14     3     4   ar
    15     4     5   ar
    16     5     6   ar
    17     6     7   ar
    18     7     8    1
    19     7     9   ar
    20     9    25    1
    21    25    26    1
    22    26    27    1
    23    27    28    1
    24    28    29    1
    25    29    30    1
    26    30    31    1
    27    31    32    1
    28    29    33    1
    29     9    10   ar
    30    10     1   ar
    31    18    12   ar
    32    10     4   ar
    33    33    26    1
    34    32    29    1
    35    21    24    1
    36    17    19    1
    37     8    11    1
@<TRIPOS>MOLECULE
*****
 33 37 0 0 0
SMALL
GASTEIGER

@<TRIPOS>ATOM
      1 C         141.5698  140.7453  165.5412 C.ar    1  UNL1        0.0906
      2 C         141.0126  140.7301  166.9338 C.ar    1  UNL1        0.1497
      3 O         139.9155  139.7083  166.9829 O.2     1  UNL1       -0.4534
      4 C         139.7947  139.0920  165.6207 C.ar    1  UNL1        0.1454
      5 C         138.8859  138.0301  165.0765 C.ar    1  UNL1        0.0406
      6 C         138.9994  137.6090  163.6413 C.ar    1  UNL1        0.0395
      7 C         140.0218  138.2499  162.7503 C.ar    1  UNL1        0.1311
      8 O         140.1354  137.8288  161.3151 O.3     1  UNL1       -0.5058
      9 C         140.9307  139.3119  163.2945 C.ar    1  UNL1        0.0308
     10 C         140.8172  139.7329  164.7297 C.ar    1  UNL1        0.0421
     11 H         139.5676  137.1654  160.9752 H       1  UNL1        0.2922
     12 C         141.4718  141.5863  168.0766 C.ar    1  UNL1        0.0377
     13 C         142.8231  141.3606  168.6871 C.ar    1  UNL1        0.0032
     14 C         143.2823  142.2168  169.8299 C.ar    1  UNL1        0.0032
     15 C         142.3902  143.2988  170.3622 C.ar    1  UNL1        0.0366
     16 C         141.0388  143.5245  169.7516 C.ar    1  UNL1        0.1338
     17 O         140.1466  144.6066  170.2839 O.3     1  UNL1       -0.5055
     18 C         140.5796  142.6683  168.6088 C.ar    1  UNL1        0.0396
     19 H         140.4334  145.1414  170.9978 H       1  UNL1        0.2922
     20 C         143.5473  143.9473  164.2814 C.3     1  UNL1        0.1109
     21 N         142.4330  143.0732  164.7757 N.am    1  UNL1       -0.2991
     22 C         142.6841  141.6194  165.0469 C.2     1  UNL1        0.2490
     23 O         144.0495  141.0399  164.8239 O.2     1  UNL1       -0.2700
     24 H         141.5368  143.4536  164.9221 H       1  UNL1        0.1498
     25 C         141.9531  139.9527  162.4035 C.3     1  UNL1        0.1023
     26 N         141.7369  141.3476  161.8961 N.3     1  UNL1       -0.2687
     27 C         142.7508  142.1944  161.1852 C.3     1  UNL1        0.0726
     28 C         142.1094  143.5108  160.8602 C.3     1  UNL1        0.0235
     29 C         140.6990  143.4777  161.3701 C.3     1  UNL1        0.0707
     30 C         139.2723  143.6631  161.7944 C.3     1  UNL1        0.1458
     31 O         139.2794  145.0461  161.2134 O.3     1  UNL1       -0.3535
     32 C         140.7061  144.8605  160.7892 C.3     1  UNL1        0.1458
     33 C         140.4689  142.1408  162.0103 C.3     1  UNL1        0.0772
@<TRIPOS>BOND
     1    20    21    1
     2    21    22   am
     3    22    23    2
     4    22     1    1
     5     1     2   ar
     6     2    12    1
     7    12    13   ar
     8    13    14   ar
     9    14    15   ar
    10    15    16   ar
    11    16    17    1
    12    16    18   ar
    13     2     3   ar
    14     3     4   ar
    15     4     5   ar
    16     5     6   ar
    17     6     7   ar
    18     7     8    1
    19     7     9   ar
    20     9    25    1
    21    25    26    1
    22    26    27    1
    23    27    28    1
    24    28    29    1
    25    29    30    1
    26    30    31    1
    27    31    32    1
    28    29    33    1
    29     9    10   ar
    30    10     1   ar
    31    18    12   ar
    32    10     4   ar
    33    33    26    1
    34    32    29    1
    35    21    24    1
    36    17    19    1
    37     8    11    1
@<TRIPOS>MOLECULE
*****
 33 37 0 0 0
SMALL
GASTEIGER

@<TRIPOS>ATOM
      1 C         142.1705  142.7866  165.3477 C.ar    1  UNL1        0.0906
      2 C         141.3356  142.5635  166.5738 C.ar    1  UNL1        0.1497
      3 O         140.0241  143.2638  166.3751 O.2     1  UNL1       -0.4534
      4 C         140.0484  143.9196  165.0263 C.ar    1  UNL1        0.1454
      5 C         139.0339  144.7472  164.2943 C.ar    1  UNL1        0.0406
      6 C         139.3460  145.2799  162.9273 C.ar    1  UNL1        0.0395
      7 C         140.6726  144.9850  162.2923 C.ar    1  UNL1        0.1311
      8 O         140.9847  145.5177  160.9252 O.3     1  UNL1       -0.5058
      9 C         141.6871  144.1573  163.0243 C.ar    1  UNL1        0.0308
     10 C         141.3749  143.6247  164.3913 C.ar    1  UNL1        0.0421
     11 H         140.3510  146.0347  160.4679 H       1  UNL1        0.2922
     12 C         141.7411  141.7781  167.7857 C.ar    1  UNL1        0.0377
     13 C         142.0850  140.3238  167.6565 C.ar    1  UNL1        0.0032
     14 C         142.4905  139.5385  168.8684 C.ar    1  UNL1        0.0032
     15 C         142.5521  140.2074  170.2095 C.ar    1  UNL1        0.0366
     16 C         142.2083  141.6617  170.3388 C.ar    1  UNL1        0.1338
     17 O         142.2700  142.3307  171.6800 O.3     1  UNL1       -0.5055
     18 C         141.8028  142.4471  169.1268 C.ar    1  UNL1        0.0396
     19 H         142.5233  141.8401  172.4370 H       1  UNL1        0.2922
     20 C         145.1437  140.3539  164.3515 C.3     1  UNL1        0.1109
     21 N         143.7568  140.8771  164.5809 N.am    1  UNL1       -0.2991
     22 C         143.5574  142.2634  165.1183 C.2     1  UNL1        0.2490
     23 O         144.7451  143.1263  165.4261 O.2     1  UNL1       -0.2700
     24 H         142.9773  140.3107  164.3789 H       1  UNL1        0.1498
     25 C         143.0136  143.8624  162.3893 C.3     1  UNL1        0.1023
     26 N         143.1036  142.8740  161.2646 N.3     1  UNL1       -0.2687
     27 C         143.3446  143.2011  159.8206 C.3     1  UNL1        0.0726
     28 C         143.3583  141.9143  159.0499 C.3     1  UNL1        0.0235
     29 C         143.1257  140.7919  160.0175 C.3     1  UNL1        0.0707
     30 C         142.9100  139.5289  160.7973 C.3     1  UNL1        0.1458
     31 O         143.0352  138.7282  159.5350 O.3     1  UNL1       -0.3535
     32 C         143.2509  139.9913  158.7553 C.3     1  UNL1        0.1458
     33 C         142.9682  141.3851  161.3863 C.3     1  UNL1        0.0772
@<TRIPOS>BOND
     1    20    21    1
     2    21    22   am
     3    22    23    2
     4    22     1    1
     5     1     2   ar
     6     2    12    1
     7    12    13   ar
     8    13    14   ar
     9    14    15   ar
    10    15    16   ar
    11    16    17    1
    12    16    18   ar
    13     2     3   ar
    14     3     4   ar
    15     4     5   ar
    16     5     6   ar
    17     6     7   ar
    18     7     8    1
    19     7     9   ar
    20     9    25    1
    21    25    26    1
    22    26    27    1
    23    27    28    1
    24    28    29    1
    25    29    30    1
    26    30    31    1
    27    31    32    1
    28    29    33    1
    29     9    10   ar
    30    10     1   ar
    31    18    12   ar
    32    10     4   ar
    33    33    26    1
    34    32    29    1
    35    21    24    1
    36    17    19    1
    37     8    11    1
@<TRIPOS>MOLECULE
*****
 33 37 0 0 0
SMALL
GASTEIGER

@<TRIPOS>ATOM
      1 C         141.9785  140.4756  165.0730 C.ar    1  UNL1        0.0906
      2 C         141.4598  139.5264  166.1122 C.ar    1  UNL1        0.1497
      3 O         141.0539  138.2587  165.4206 O.2     1  UNL1       -0.4534
      4 C         141.3216  138.4245  163.9540 C.ar    1  UNL1        0.1454
      5 C         141.1189  137.5049  162.7865 C.ar    1  UNL1        0.0406
      6 C         141.4876  137.9554  161.4041 C.ar    1  UNL1        0.0395
      7 C         142.0590  139.3256  161.1893 C.ar    1  UNL1        0.1311
      8 O         142.4277  139.7761  159.8068 O.3     1  UNL1       -0.5058
      9 C         142.2617  140.2452  162.3568 C.ar    1  UNL1        0.0308
     10 C         141.8930  139.7946  163.7392 C.ar    1  UNL1        0.0421
     11 H         142.3011  139.2016  159.0775 H       1  UNL1        0.2922
     12 C         141.3640  139.7972  167.5844 C.ar    1  UNL1        0.0377
     13 C         142.5956  139.7424  168.4388 C.ar    1  UNL1        0.0032
     14 C         142.4998  140.0132  169.9110 C.ar    1  UNL1        0.0032
     15 C         141.1723  140.3389  170.5289 C.ar    1  UNL1        0.0366
     16 C         139.9407  140.3937  169.6745 C.ar    1  UNL1        0.1338
     17 O         138.6132  140.7194  170.2923 O.3     1  UNL1       -0.5055
     18 C         140.0366  140.1229  168.2022 C.ar    1  UNL1        0.0396
     19 H         138.5533  140.8886  171.2119 H       1  UNL1        0.2922
     20 C         144.4814  143.5196  165.5420 C.3     1  UNL1        0.1109
     21 N         143.9675  142.1328  165.2914 N.am    1  UNL1       -0.2991
     22 C         142.4923  141.8624  165.3235 C.2     1  UNL1        0.2490
     23 O         141.5313  142.9787  165.6062 O.2     1  UNL1       -0.2700
     24 H         144.5984  141.4002  165.1059 H       1  UNL1        0.1498
     25 C         142.8332  141.6153  162.1419 C.3     1  UNL1        0.1023
     26 N         141.9433  142.8201  162.2224 N.3     1  UNL1       -0.2687
     27 C         142.3972  144.2468  162.3168 C.3     1  UNL1        0.0726
     28 C         141.1778  145.1183  162.3753 C.3     1  UNL1        0.0235
     29 C         139.9702  144.2303  162.3170 C.3     1  UNL1        0.0707
     30 C         138.6384  143.5418  162.2720 C.3     1  UNL1        0.1458
     31 O         137.9483  144.8707  162.3606 O.3     1  UNL1       -0.3535
     32 C         139.2802  145.5592  162.4055 C.3     1  UNL1        0.1458
     33 C         140.4434  142.8100  162.2225 C.3     1  UNL1        0.0772
@<TRIPOS>BOND
     1    20    21    1
     2    21    22   am
     3    22    23    2
     4    22     1    1
     5     1     2   ar
     6     2    12    1
     7    12    13   ar
     8    13    14   ar
     9    14    15   ar
    10    15    16   ar
    11    16    17    1
    12    16    18   ar
    13     2     3   ar
    14     3     4   ar
    15     4     5   ar
    16     5     6   ar
    17     6     7   ar
    18     7     8    1
    19     7     9   ar
    20     9    25    1
    21    25    26    1
    22    26    27    1
    23    27    28    1
    24    28    29    1
    25    29    30    1
    26    30    31    1
    27    31    32    1
    28    29    33    1
    29     9    10   ar
    30    10     1   ar
    31    18    12   ar
    32    10     4   ar
    33    33    26    1
    34    32    29    1
    35    21    24    1
    36    17    19    1
    37     8    11    1
@<TRIPOS>MOLECULE
*****
 33 37 0 0 0
SMALL
GASTEIGER

@<TRIPOS>ATOM
      1 C         141.1603  142.1533  165.4037 C.ar    1  UNL1        0.0906
      2 C         141.9913  141.9895  166.6417 C.ar    1  UNL1        0.1497
      3 O         143.2647  142.7588  166.4502 O.2     1  UNL1       -0.4534
      4 C         143.2207  143.3980  165.0939 C.ar    1  UNL1        0.1454
      5 C         144.1969  144.2724  164.3644 C.ar    1  UNL1        0.0406
      6 C         143.8725  144.7727  162.9880 C.ar    1  UNL1        0.0395
      7 C         142.5719  144.3985  162.3412 C.ar    1  UNL1        0.1311
      8 O         142.2475  144.8988  160.9647 O.3     1  UNL1       -0.5058
      9 C         141.5957  143.5240  163.0708 C.ar    1  UNL1        0.0308
     10 C         141.9201  143.0238  164.4471 C.ar    1  UNL1        0.0421
     11 H         142.8573  145.4450  160.5090 H       1  UNL1        0.2922
     12 C         141.6150  141.1958  167.8576 C.ar    1  UNL1        0.0377
     13 C         142.5604  140.1676  168.4043 C.ar    1  UNL1        0.0032
     14 C         142.1841  139.3739  169.6202 C.ar    1  UNL1        0.0032
     15 C         140.8624  139.6084  170.2894 C.ar    1  UNL1        0.0366
     16 C         139.9169  140.6366  169.7427 C.ar    1  UNL1        0.1338
     17 O         138.5950  140.8711  170.4119 O.3     1  UNL1       -0.5055
     18 C         140.2932  141.4303  168.5268 C.ar    1  UNL1        0.0396
     19 H         138.3600  140.3753  171.1714 H       1  UNL1        0.2922
     20 C         138.3212  139.4781  164.6732 C.3     1  UNL1        0.1109
     21 N         139.6745  140.0793  164.9126 N.am    1  UNL1       -0.2991
     22 C         139.8070  141.5522  165.1643 C.2     1  UNL1        0.2490
     23 O         138.5864  142.4237  165.1764 O.2     1  UNL1       -0.2700
     24 H         140.4756  139.5072  164.9047 H       1  UNL1        0.1498
     25 C         140.2950  143.1498  162.4240 C.3     1  UNL1        0.1023
     26 N         140.2169  141.9389  161.5423 N.3     1  UNL1       -0.2687
     27 C         141.0793  140.7158  161.6456 C.3     1  UNL1        0.0726
     28 C         140.6581  139.7594  160.5696 C.3     1  UNL1        0.0235
     29 C         139.5355  140.3913  159.8012 C.3     1  UNL1        0.0707
     30 C         138.4145  140.8260  158.9043 C.3     1  UNL1        0.1458
     31 O         138.5129  139.5310  158.1536 O.3     1  UNL1       -0.3535
     32 C         139.6340  139.0964  159.0505 C.3     1  UNL1        0.1458
     33 C         139.2628  141.7383  160.4023 C.3     1  UNL1        0.0772
@<TRIPOS>BOND
     1    20    21    1
     2    21    22   am
     3    22    23    2
     4    22     1    1
     5     1     2   ar
     6     2    12    1
     7    12    13   ar
     8    13    14   ar
     9    14    15   ar
    10    15    16   ar
    11    16    17    1
    12    16    18   ar
    13     2     3   ar
    14     3     4   ar
    15     4     5   ar
    16     5     6   ar
    17     6     7   ar
    18     7     8    1
    19     7     9   ar
    20     9    25    1
    21    25    26    1
    22    26    27    1
    23    27    28    1
    24    28    29    1
    25    29    30    1
    26    30    31    1
    27    31    32    1
    28    29    33    1
    29     9    10   ar
    30    10     1   ar
    31    18    12   ar
    32    10     4   ar
    33    33    26    1
    34    32    29    1
    35    21    24    1
    36    17    19    1
    37     8    11    1
@<TRIPOS>MOLECULE
*****
 33 37 0 0 0
SMALL
GASTEIGER

@<TRIPOS>ATOM
      1 C         141.3298  141.7856  165.3202 C.ar    1  UNL1        0.0906
      2 C         142.0227  141.8425  166.6494 C.ar    1  UNL1        0.1497
      3 O         143.2181  142.7380  166.5110 O.2     1  UNL1       -0.4534
      4 C         143.2640  143.2345  165.0963 C.ar    1  UNL1        0.1454
      5 C         144.2177  144.1466  164.3832 C.ar    1  UNL1        0.0406
      6 C         144.0044  144.4701  162.9341 C.ar    1  UNL1        0.0395
      7 C         142.8373  143.8815  162.1982 C.ar    1  UNL1        0.1311
      8 O         142.6240  144.2050  160.7490 O.3     1  UNL1       -0.5058
      9 C         141.8837  142.9694  162.9113 C.ar    1  UNL1        0.0308
     10 C         142.0970  142.6459  164.3603 C.ar    1  UNL1        0.0421
     11 H         143.2198  144.7747  160.3036 H       1  UNL1        0.2922
     12 C         141.5952  141.1291  167.8977 C.ar    1  UNL1        0.0377
     13 C         140.2808  141.4621  168.5391 C.ar    1  UNL1        0.0032
     14 C         139.8534  140.7487  169.7875 C.ar    1  UNL1        0.0032
     15 C         140.7403  139.7024  170.3945 C.ar    1  UNL1        0.0366
     16 C         142.0547  139.3694  169.7531 C.ar    1  UNL1        0.1338
     17 O         142.9418  138.3231  170.3601 O.3     1  UNL1       -0.5055
     18 C         142.4822  140.0828  168.5047 C.ar    1  UNL1        0.0396
     19 H         142.6748  137.8774  171.1399 H       1  UNL1        0.2922
     20 C         138.9528  138.8198  164.1783 C.3     1  UNL1        0.1109
     21 N         140.1948  139.6000  164.4925 N.am    1  UNL1       -0.2991
     22 C         140.0878  141.0054  165.0060 C.2     1  UNL1        0.2490
     23 O         138.7390  141.6304  165.2053 O.2     1  UNL1       -0.2700
     24 H         141.0801  139.1897  164.3617 H       1  UNL1        0.1498
     25 C         140.7166  142.3808  162.1753 C.3     1  UNL1        0.1023
     26 N         140.9492  141.4492  161.0230 N.3     1  UNL1       -0.2687
     27 C         140.0187  141.2263  159.8677 C.3     1  UNL1        0.0726
     28 C         140.6475  140.2163  158.9542 C.3     1  UNL1        0.0235
     29 C         141.9667  139.8149  159.5448 C.3     1  UNL1        0.0707
     30 C         143.3059  139.2729  159.9480 C.3     1  UNL1        0.1458
     31 O         143.3293  138.4155  158.7173 O.3     1  UNL1       -0.3535
     32 C         141.9900  138.9577  158.3143 C.3     1  UNL1        0.1458
     33 C         142.1531  140.5770  160.8234 C.3     1  UNL1        0.0772
@<TRIPOS>BOND
     1    20    21    1
     2    21    22   am
     3    22    23    2
     4    22     1    1
     5     1     2   ar
     6     2    12    1
     7    12    13   ar
     8    13    14   ar
     9    14    15   ar
    10    15    16   ar
    11    16    17    1
    12    16    18   ar
    13     2     3   ar
    14     3     4   ar
    15     4     5   ar
    16     5     6   ar
    17     6     7   ar
    18     7     8    1
    19     7     9   ar
    20     9    25    1
    21    25    26    1
    22    26    27    1
    23    27    28    1
    24    28    29    1
    25    29    30    1
    26    30    31    1
    27    31    32    1
    28    29    33    1
    29     9    10   ar
    30    10     1   ar
    31    18    12   ar
    32    10     4   ar
    33    33    26    1
    34    32    29    1
    35    21    24    1
    36    17    19    1
    37     8    11    1
@<TRIPOS>MOLECULE
*****
 33 37 0 0 0
SMALL
GASTEIGER

@<TRIPOS>ATOM
      1 C         140.4607  141.5692  164.1991 C.ar    1  UNL1        0.0906
      2 C         140.6601  140.5468  165.2784 C.ar    1  UNL1        0.1497
      3 O         141.9643  140.8398  165.9590 O.2     1  UNL1       -0.4534
      4 C         142.5709  142.0431  165.3004 C.ar    1  UNL1        0.1454
      5 C         143.8494  142.7867  165.5505 C.ar    1  UNL1        0.0406
      6 C         144.1986  143.9810  164.7129 C.ar    1  UNL1        0.0395
      7 C         143.2693  144.4318  163.6252 C.ar    1  UNL1        0.1311
      8 O         143.6186  145.6262  162.7876 O.3     1  UNL1       -0.5058
      9 C         141.9909  143.6883  163.3750 C.ar    1  UNL1        0.0308
     10 C         141.6417  142.4940  164.2126 C.ar    1  UNL1        0.0421
     11 H         144.4172  146.0907  162.9438 H       1  UNL1        0.2922
     12 C         139.7204  139.4280  165.6176 C.ar    1  UNL1        0.0377
     13 C         139.6460  138.2174  164.7350 C.ar    1  UNL1        0.0032
     14 C         138.7063  137.0985  165.0742 C.ar    1  UNL1        0.0032
     15 C         137.8408  137.1903  166.2959 C.ar    1  UNL1        0.0366
     16 C         137.9152  138.4008  167.1784 C.ar    1  UNL1        0.1338
     17 O         137.0497  138.4926  168.4002 O.3     1  UNL1       -0.5055
     18 C         138.8550  139.5197  166.8393 C.ar    1  UNL1        0.0396
     19 H         136.4627  137.7937  168.6121 H       1  UNL1        0.2922
     20 C         138.1144  140.9567  161.0574 C.3     1  UNL1        0.1109
     21 N         139.2886  140.8737  161.9871 N.am    1  UNL1       -0.2991
     22 C         139.2865  141.6522  163.2693 C.2     1  UNL1        0.2490
     23 O         138.1103  142.5136  163.6217 O.2     1  UNL1       -0.2700
     24 H         140.0607  140.3083  161.7557 H       1  UNL1        0.1498
     25 C         141.0616  144.1391  162.2873 C.3     1  UNL1        0.1023
     26 N         141.5214  144.1375  160.8595 N.3     1  UNL1       -0.2687
     27 C         142.5504  143.2217  160.2656 C.3     1  UNL1        0.0726
     28 C         142.6980  143.5696  158.8140 C.3     1  UNL1        0.0235
     29 C         141.7602  144.7005  158.5107 C.3     1  UNL1        0.0707
     30 C         140.9060  145.8171  157.9879 C.3     1  UNL1        0.1458
     31 O         141.5069  145.6387  156.6251 O.3     1  UNL1       -0.3535
     32 C         142.3611  144.5220  157.1480 C.3     1  UNL1        0.1458
     33 C         141.0331  145.0514  159.7749 C.3     1  UNL1        0.0772
@<TRIPOS>BOND
     1    20    21    1
     2    21    22   am
     3    22    23    2
     4    22     1    1
     5     1     2   ar
     6     2    12    1
     7    12    13   ar
     8    13    14   ar
     9    14    15   ar
    10    15    16   ar
    11    16    17    1
    12    16    18   ar
    13     2     3   ar
    14     3     4   ar
    15     4     5   ar
    16     5     6   ar
    17     6     7   ar
    18     7     8    1
    19     7     9   ar
    20     9    25    1
    21    25    26    1
    22    26    27    1
    23    27    28    1
    24    28    29    1
    25    29    30    1
    26    30    31    1
    27    31    32    1
    28    29    33    1
    29     9    10   ar
    30    10     1   ar
    31    18    12   ar
    32    10     4   ar
    33    33    26    1
    34    32    29    1
    35    21    24    1
    36    17    19    1
    37     8    11    1
@<TRIPOS>MOLECULE
*****
 33 37 0 0 0
SMALL
GASTEIGER

@<TRIPOS>ATOM
      1 C         141.2189  141.0048  165.4184 C.ar    1  UNL1        0.0906
      2 C         140.9224  140.7772  166.8711 C.ar    1  UNL1        0.1497
      3 O         140.0525  139.5602  166.9814 O.2     1  UNL1       -0.4534
      4 C         139.8113  139.0357  165.5969 C.ar    1  UNL1        0.1454
      5 C         139.0283  137.8605  165.0911 C.ar    1  UNL1        0.0406
      6 C         138.9663  137.5782  163.6193 C.ar    1  UNL1        0.0395
      7 C         139.6872  138.4710  162.6532 C.ar    1  UNL1        0.1311
      8 O         139.6251  138.1886  161.1813 O.3     1  UNL1       -0.5058
      9 C         140.4701  139.6462  163.1591 C.ar    1  UNL1        0.0308
     10 C         140.5321  139.9286  164.6309 C.ar    1  UNL1        0.0421
     11 H         139.1360  137.4545  160.8653 H       1  UNL1        0.2922
     12 C         141.4103  141.6187  168.0130 C.ar    1  UNL1        0.0377
     13 C         142.7882  141.4061  168.5662 C.ar    1  UNL1        0.0032
     14 C         143.2761  142.2476  169.7080 C.ar    1  UNL1        0.0032
     15 C         142.3860  143.3018  170.2967 C.ar    1  UNL1        0.0366
     16 C         141.0081  143.5143  169.7435 C.ar    1  UNL1        0.1338
     17 O         140.1179  144.5685  170.3321 O.3     1  UNL1       -0.5055
     18 C         140.5202  142.6728  168.6016 C.ar    1  UNL1        0.0396
     19 H         140.4226  145.0942  171.0454 H       1  UNL1        0.2922
     20 C         144.3798  143.0641  164.1863 C.3     1  UNL1        0.1109
     21 N         143.5435  141.9549  164.7522 N.am    1  UNL1       -0.2991
     22 C         142.0552  142.1140  164.8525 C.2     1  UNL1        0.2490
     23 O         141.4035  143.3822  164.3870 O.2     1  UNL1       -0.2700
     24 H         143.9713  141.1226  165.0577 H       1  UNL1        0.1498
     25 C         141.1910  140.5391  162.1931 C.3     1  UNL1        0.1023
     26 N         140.4271  141.2501  161.1156 N.3     1  UNL1       -0.2687
     27 C         139.1181  141.9625  161.2863 C.3     1  UNL1        0.0726
     28 C         138.7201  142.5263  159.9545 C.3     1  UNL1        0.0235
     29 C         139.7831  142.1623  158.9606 C.3     1  UNL1        0.0707
     30 C         140.7135  141.9140  157.8106 C.3     1  UNL1        0.1458
     31 O         139.7927  142.6732  156.9018 O.3     1  UNL1       -0.3535
     32 C         138.8623  142.9214  158.0519 C.3     1  UNL1        0.1458
     33 C         140.8381  141.3735  159.6783 C.3     1  UNL1        0.0772
@<TRIPOS>BOND
     1    20    21    1
     2    21    22   am
     3    22    23    2
     4    22     1    1
     5     1     2   ar
     6     2    12    1
     7    12    13   ar
     8    13    14   ar
     9    14    15   ar
    10    15    16   ar
    11    16    17    1
    12    16    18   ar
    13     2     3   ar
    14     3     4   ar
    15     4     5   ar
    16     5     6   ar
    17     6     7   ar
    18     7     8    1
    19     7     9   ar
    20     9    25    1
    21    25    26    1
    22    26    27    1
    23    27    28    1
    24    28    29    1
    25    29    30    1
    26    30    31    1
    27    31    32    1
    28    29    33    1
    29     9    10   ar
    30    10     1   ar
    31    18    12   ar
    32    10     4   ar
    33    33    26    1
    34    32    29    1
    35    21    24    1
    36    17    19    1
    37     8    11    1
