@<TRIPOS>MOLECULE
*****
 26 28 0 0 0
SMALL
GASTEIGER

@<TRIPOS>ATOM
      1 S         139.3971  139.0199  165.0479 S.O2    1  UNL1        0.0129
      2 O         138.1606  139.7211  164.5692 O.2     1  UNL1       -0.1683
      3 O         140.6337  138.3187  165.5267 O.2     1  UNL1       -0.1683
      4 C         139.8738  138.8934  163.6313 C.ar    1  UNL1        0.1066
      5 C         138.9831  138.2794  162.5923 C.ar    1  UNL1        0.0199
      6 C         139.4598  138.1529  161.1757 C.ar    1  UNL1        0.0210
      7 C         140.8272  138.6404  160.7981 C.ar    1  UNL1        0.0893
      8 N         141.5646  138.6488  159.4918 N.ar    1  UNL1       -0.2245
      9 C         142.9110  139.2680  159.7236 C.ar    1  UNL1        0.1567
     10 N         143.9757  139.4765  158.6877 N.pl3   1  UNL1       -0.3375
     11 S         143.0058  139.6423  161.1731 S.2     1  UNL1       -0.0519
     12 C         141.7179  139.2543  161.8372 C.ar    1  UNL1        0.0510
     13 C         141.2412  139.3809  163.2537 C.ar    1  UNL1        0.0264
     14 H         143.8188  139.1959  157.7572 H       1  UNL1        0.1442
     15 H         144.8314  139.8938  158.9384 H       1  UNL1        0.1442
     16 C         138.9204  139.1465  166.4645 C.3     1  UNL1        0.1822
     17 C         140.4492  142.4872  169.0630 C.ar    1  UNL1        0.0756
     18 C         140.5531  142.5906  167.5701 C.ar    1  UNL1        0.0062
     19 C         140.0435  141.4770  166.7040 C.ar    1  UNL1       -0.0023
     20 C         139.4300  140.2600  167.3307 C.ar    1  UNL1        0.0017
     21 C         139.3262  140.1567  168.8235 C.ar    1  UNL1       -0.0023
     22 C         139.8358  141.2702  169.6896 C.ar    1  UNL1        0.0062
     23 C         140.9588  143.6008  169.9292 C.2     1  UNL1        0.3413
     24 O         140.0887  144.7894  170.2118 O.2     1  UNL1       -0.2449
     25 C         143.3231  142.5250  169.9841 C.3     1  UNL1        0.2560
     26 O         142.3386  143.5256  170.5128 O.3     1  UNL1       -0.4413
@<TRIPOS>BOND
     1    25    26    1
     2    26    23    1
     3    23    24    2
     4    23    17    1
     5    17    18   ar
     6    18    19   ar
     7    19    20   ar
     8    20    16    1
     9    16     1    1
    10     1     2    2
    11     1     3    2
    12     1     4    1
    13     4     5   ar
    14     5     6   ar
    15     6     7   ar
    16     7     8   ar
    17     8     9   ar
    18     9    10    1
    19     9    11   ar
    20    11    12   ar
    21    12    13   ar
    22    20    21   ar
    23    21    22   ar
    24    22    17   ar
    25    13     4   ar
    26    12     7   ar
    27    10    14    1
    28    10    15    1
@<TRIPOS>MOLECULE
*****
 26 28 0 0 0
SMALL
GASTEIGER

@<TRIPOS>ATOM
      1 S         139.2041  139.0998  166.5404 S.O2    1  UNL1        0.0129
      2 O         140.5696  139.2516  165.9385 O.2     1  UNL1       -0.1683
      3 O         137.8386  138.9481  167.1422 O.2     1  UNL1       -0.1683
      4 C         139.6313  139.9254  167.7177 C.ar    1  UNL1        0.1066
      5 C         138.7757  139.9755  168.9486 C.ar    1  UNL1        0.0199
      6 C         139.2030  140.8010  170.1258 C.ar    1  UNL1        0.0210
      7 C         140.4858  141.5765  170.0721 C.ar    1  UNL1        0.0893
      8 N         141.1604  142.4711  171.0695 N.ar    1  UNL1       -0.2245
      9 C         142.4330  142.9739  170.4548 C.ar    1  UNL1        0.1567
     10 N         143.4204  143.8983  171.1034 N.pl3   1  UNL1       -0.3375
     11 S         142.5448  142.3901  169.0776 S.2     1  UNL1       -0.0519
     12 C         141.3414  141.5264  168.8411 C.ar    1  UNL1        0.0510
     13 C         140.9142  140.7009  167.6639 C.ar    1  UNL1        0.0264
     14 H         143.2581  144.2301  172.0160 H       1  UNL1        0.1442
     15 H         144.2307  144.1732  170.6166 H       1  UNL1        0.1442
     16 C         138.7769  138.2743  165.3631 C.3     1  UNL1        0.1822
     17 C         138.2857  140.1986  161.3251 C.ar    1  UNL1        0.0756
     18 C         137.9417  140.9649  162.5679 C.ar    1  UNL1        0.0062
     19 C         138.1054  140.3235  163.9139 C.ar    1  UNL1       -0.0023
     20 C         138.6132  138.9157  164.0171 C.ar    1  UNL1        0.0017
     21 C         138.9571  138.1495  162.7743 C.ar    1  UNL1       -0.0023
     22 C         138.7934  138.7910  161.4283 C.ar    1  UNL1        0.0062
     23 C         138.1220  140.8401  159.9791 C.2     1  UNL1        0.3413
     24 O         137.8279  139.9941  158.7759 O.2     1  UNL1       -0.2449
     25 C         139.0582  142.9053  158.7108 C.3     1  UNL1        0.2560
     26 O         138.2523  142.3276  159.8363 O.3     1  UNL1       -0.4413
@<TRIPOS>BOND
     1    25    26    1
     2    26    23    1
     3    23    24    2
     4    23    17    1
     5    17    18   ar
     6    18    19   ar
     7    19    20   ar
     8    20    16    1
     9    16     1    1
    10     1     2    2
    11     1     3    2
    12     1     4    1
    13     4     5   ar
    14     5     6   ar
    15     6     7   ar
    16     7     8   ar
    17     8     9   ar
    18     9    10    1
    19     9    11   ar
    20    11    12   ar
    21    12    13   ar
    22    20    21   ar
    23    21    22   ar
    24    22    17   ar
    25    13     4   ar
    26    12     7   ar
    27    10    14    1
    28    10    15    1
@<TRIPOS>MOLECULE
*****
 26 28 0 0 0
SMALL
GASTEIGER

@<TRIPOS>ATOM
      1 S         138.9604  139.1179  165.2223 S.O2    1  UNL1        0.0129
      2 O         140.1630  138.2338  165.0728 O.2     1  UNL1       -0.1683
      3 O         137.7579  140.0019  165.3718 O.2     1  UNL1       -0.1683
      4 C         138.8569  139.2293  163.7300 C.ar    1  UNL1        0.1066
      5 C         138.8931  137.9931  162.8813 C.ar    1  UNL1        0.0199
      6 C         138.7896  138.1046  161.3890 C.ar    1  UNL1        0.0210
      7 C         138.6498  139.4524  160.7455 C.ar    1  UNL1        0.0893
      8 N         138.5274  139.8716  159.3104 N.ar    1  UNL1       -0.2245
      9 C         138.4155  141.3669  159.2723 C.ar    1  UNL1        0.1567
     10 N         138.2750  142.2094  158.0392 N.pl3   1  UNL1       -0.3375
     11 S         138.4687  141.8718  160.6838 S.2     1  UNL1       -0.0519
     12 C         138.6136  140.6886  161.5943 C.ar    1  UNL1        0.0510
     13 C         138.7171  140.5771  163.0865 C.ar    1  UNL1        0.0264
     14 H         138.2495  141.7832  157.1521 H       1  UNL1        0.1442
     15 H         138.2083  143.1886  158.1170 H       1  UNL1        0.1442
     16 C         139.0640  139.0064  166.7145 C.3     1  UNL1        0.1822
     17 C         140.4722  142.5246  169.1414 C.ar    1  UNL1        0.0756
     18 C         139.7603  141.3874  169.8123 C.ar    1  UNL1        0.0062
     19 C         139.2909  140.2147  169.0034 C.ar    1  UNL1       -0.0023
     20 C         139.5334  140.1791  167.5235 C.ar    1  UNL1        0.0017
     21 C         140.2453  141.3162  166.8526 C.ar    1  UNL1       -0.0023
     22 C         140.7147  142.4890  167.6616 C.ar    1  UNL1        0.0062
     23 C         140.9415  143.6973  169.9503 C.2     1  UNL1        0.3413
     24 O         139.9769  144.7820  170.3282 O.2     1  UNL1       -0.2449
     25 C         143.3011  142.6281  170.1483 C.3     1  UNL1        0.2560
     26 O         142.3756  143.7853  170.3813 O.3     1  UNL1       -0.4413
@<TRIPOS>BOND
     1    25    26    1
     2    26    23    1
     3    23    24    2
     4    23    17    1
     5    17    18   ar
     6    18    19   ar
     7    19    20   ar
     8    20    16    1
     9    16     1    1
    10     1     2    2
    11     1     3    2
    12     1     4    1
    13     4     5   ar
    14     5     6   ar
    15     6     7   ar
    16     7     8   ar
    17     8     9   ar
    18     9    10    1
    19     9    11   ar
    20    11    12   ar
    21    12    13   ar
    22    20    21   ar
    23    21    22   ar
    24    22    17   ar
    25    13     4   ar
    26    12     7   ar
    27    10    14    1
    28    10    15    1
@<TRIPOS>MOLECULE
*****
 26 28 0 0 0
SMALL
GASTEIGER

@<TRIPOS>ATOM
      1 S         138.8442  139.4824  166.8987 S.O2    1  UNL1        0.0129
      2 O         137.9792  138.6672  167.8136 O.2     1  UNL1       -0.1683
      3 O         139.7093  140.2977  165.9838 O.2     1  UNL1       -0.1683
      4 C         139.4519  140.1696  168.0856 C.ar    1  UNL1        0.1066
      5 C         138.8513  139.9853  169.4477 C.ar    1  UNL1        0.0199
      6 C         139.4590  140.6724  170.6345 C.ar    1  UNL1        0.0210
      7 C         140.6672  141.5439  170.4592 C.ar    1  UNL1        0.0893
      8 N         141.4787  142.3427  171.4356 N.ar    1  UNL1       -0.2245
      9 C         142.5808  143.0208  170.6770 C.ar    1  UNL1        0.1567
     10 N         143.6293  143.9207  171.2610 N.pl3   1  UNL1       -0.3375
     11 S         142.4504  142.6410  169.2317 S.2     1  UNL1       -0.0519
     12 C         141.2678  141.7282  169.0971 C.ar    1  UNL1        0.0510
     13 C         140.6601  141.0411  167.9103 C.ar    1  UNL1        0.0264
     14 H         143.6320  144.1112  172.2269 H       1  UNL1        0.1442
     15 H         144.3147  144.3208  170.6784 H       1  UNL1        0.1442
     16 C         138.2366  138.7953  165.7119 C.3     1  UNL1        0.1822
     17 C         140.6499  138.2387  161.9548 C.ar    1  UNL1        0.0756
     18 C         139.4848  139.1835  161.9647 C.ar    1  UNL1        0.0062
     19 C         138.6804  139.3690  163.2171 C.ar    1  UNL1       -0.0023
     20 C         139.0410  138.6098  164.4595 C.ar    1  UNL1        0.0017
     21 C         140.2060  137.6650  164.4495 C.ar    1  UNL1       -0.0023
     22 C         141.0104  137.4795  163.1971 C.ar    1  UNL1        0.0062
     23 C         141.4543  138.0531  160.7024 C.2     1  UNL1        0.3413
     24 O         140.8718  138.4337  159.3736 O.2     1  UNL1       -0.2449
     25 C         144.0169  138.4028  160.9492 C.3     1  UNL1        0.2560
     26 O         142.8413  137.4869  160.7789 O.3     1  UNL1       -0.4413
@<TRIPOS>BOND
     1    25    26    1
     2    26    23    1
     3    23    24    2
     4    23    17    1
     5    17    18   ar
     6    18    19   ar
     7    19    20   ar
     8    20    16    1
     9    16     1    1
    10     1     2    2
    11     1     3    2
    12     1     4    1
    13     4     5   ar
    14     5     6   ar
    15     6     7   ar
    16     7     8   ar
    17     8     9   ar
    18     9    10    1
    19     9    11   ar
    20    11    12   ar
    21    12    13   ar
    22    20    21   ar
    23    21    22   ar
    24    22    17   ar
    25    13     4   ar
    26    12     7   ar
    27    10    14    1
    28    10    15    1
@<TRIPOS>MOLECULE
*****
 26 28 0 0 0
SMALL
GASTEIGER

@<TRIPOS>ATOM
      1 S         139.3718  141.7312  164.4010 S.O2    1  UNL1        0.0129
      2 O         140.7206  141.1740  164.0544 O.2     1  UNL1       -0.1683
      3 O         138.0231  142.2885  164.7476 O.2     1  UNL1       -0.1683
      4 C         139.5605  142.8193  163.3858 C.ar    1  UNL1        0.1066
      5 C         138.7521  144.0794  163.4778 C.ar    1  UNL1        0.0199
      6 C         138.9408  145.1673  162.4626 C.ar    1  UNL1        0.0210
      7 C         139.9379  144.9952  161.3553 C.ar    1  UNL1        0.0893
      8 N         140.3392  145.8876  160.2183 N.ar    1  UNL1       -0.2245
      9 C         141.3957  145.1789  159.4236 C.ar    1  UNL1        0.1567
     10 N         142.0804  145.7077  158.1981 N.pl3   1  UNL1       -0.3375
     11 S         141.6473  143.8486  160.0694 S.2     1  UNL1       -0.0519
     12 C         140.7464  143.7351  161.2633 C.ar    1  UNL1        0.0510
     13 C         140.5577  142.6471  162.2785 C.ar    1  UNL1        0.0264
     14 H         141.8455  146.5974  157.8483 H       1  UNL1        0.1442
     15 H         142.7646  145.1649  157.7436 H       1  UNL1        0.1442
     16 C         139.1832  140.6432  165.4162 C.3     1  UNL1        0.1822
     17 C         140.4633  141.2980  169.6803 C.ar    1  UNL1        0.0756
     18 C         140.8066  142.3124  168.6300 C.ar    1  UNL1        0.0062
     19 C         140.3799  142.0942  167.2086 C.ar    1  UNL1       -0.0023
     20 C         139.6099  140.8615  166.8375 C.ar    1  UNL1        0.0017
     21 C         139.2666  139.8471  167.8878 C.ar    1  UNL1       -0.0023
     22 C         139.6933  140.0654  169.3092 C.ar    1  UNL1        0.0062
     23 C         140.8900  141.5162  171.1017 C.2     1  UNL1        0.3413
     24 O         140.1146  142.4506  171.9824 O.2     1  UNL1       -0.2449
     25 C         143.0391  140.1112  170.7049 C.3     1  UNL1        0.2560
     26 O         142.0921  140.8001  171.6423 O.3     1  UNL1       -0.4413
@<TRIPOS>BOND
     1    25    26    1
     2    26    23    1
     3    23    24    2
     4    23    17    1
     5    17    18   ar
     6    18    19   ar
     7    19    20   ar
     8    20    16    1
     9    16     1    1
    10     1     2    2
    11     1     3    2
    12     1     4    1
    13     4     5   ar
    14     5     6   ar
    15     6     7   ar
    16     7     8   ar
    17     8     9   ar
    18     9    10    1
    19     9    11   ar
    20    11    12   ar
    21    12    13   ar
    22    20    21   ar
    23    21    22   ar
    24    22    17   ar
    25    13     4   ar
    26    12     7   ar
    27    10    14    1
    28    10    15    1
@<TRIPOS>MOLECULE
*****
 26 28 0 0 0
SMALL
GASTEIGER

@<TRIPOS>ATOM
      1 S         142.7076  138.8226  164.4732 S.O2    1  UNL1        0.0129
      2 O         142.0608  137.5000  164.7603 O.2     1  UNL1       -0.1683
      3 O         143.3545  140.1451  164.1861 O.2     1  UNL1       -0.1683
      4 C         142.2714  138.7251  163.0413 C.ar    1  UNL1        0.1066
      5 C         143.1224  137.9934  162.0462 C.ar    1  UNL1        0.0199
      6 C         142.6861  137.8959  160.6144 C.ar    1  UNL1        0.0210
      7 C         141.3988  138.5301  160.1777 C.ar    1  UNL1        0.0893
      8 N         140.7154  138.5987  158.8441 N.ar    1  UNL1       -0.2245
      9 C         139.4420  139.3728  159.0152 C.ar    1  UNL1        0.1567
     10 N         138.4468  139.6827  157.9364 N.pl3   1  UNL1       -0.3375
     11 S         139.3384  139.7826  160.4544 S.2     1  UNL1       -0.0519
     12 C         140.5478  139.2618  161.1729 C.ar    1  UNL1        0.0510
     13 C         140.9841  139.3593  162.6047 C.ar    1  UNL1        0.0264
     14 H         138.6040  139.3685  157.0167 H       1  UNL1        0.1442
     15 H         137.6366  140.2003  158.1481 H       1  UNL1        0.1442
     16 C         143.1439  138.9200  165.9050 C.3     1  UNL1        0.1822
     17 C         140.2205  140.2348  169.0634 C.ar    1  UNL1        0.0756
     18 C         139.8364  140.2942  167.6145 C.ar    1  UNL1        0.0062
     19 C         140.8109  139.8559  166.5617 C.ar    1  UNL1       -0.0023
     20 C         142.1694  139.3583  166.9578 C.ar    1  UNL1        0.0017
     21 C         142.5534  139.2988  168.4066 C.ar    1  UNL1       -0.0023
     22 C         141.5789  139.7371  169.4594 C.ar    1  UNL1        0.0062
     23 C         139.2460  140.6730  170.1161 C.2     1  UNL1        0.3413
     24 O         137.9903  139.8866  170.3498 O.2     1  UNL1       -0.2449
     25 C         140.0514  143.1381  170.2742 C.3     1  UNL1        0.2560
     26 O         139.5273  141.8978  170.9353 O.3     1  UNL1       -0.4413
@<TRIPOS>BOND
     1    25    26    1
     2    26    23    1
     3    23    24    2
     4    23    17    1
     5    17    18   ar
     6    18    19   ar
     7    19    20   ar
     8    20    16    1
     9    16     1    1
    10     1     2    2
    11     1     3    2
    12     1     4    1
    13     4     5   ar
    14     5     6   ar
    15     6     7   ar
    16     7     8   ar
    17     8     9   ar
    18     9    10    1
    19     9    11   ar
    20    11    12   ar
    21    12    13   ar
    22    20    21   ar
    23    21    22   ar
    24    22    17   ar
    25    13     4   ar
    26    12     7   ar
    27    10    14    1
    28    10    15    1
@<TRIPOS>MOLECULE
*****
 26 28 0 0 0
SMALL
GASTEIGER

@<TRIPOS>ATOM
      1 S         143.2020  139.7660  164.5378 S.O2    1  UNL1        0.0129
      2 O         143.7071  140.9625  165.2883 O.2     1  UNL1       -0.1683
      3 O         142.6969  138.5696  163.7873 O.2     1  UNL1       -0.1683
      4 C         143.2501  140.5481  163.2587 C.ar    1  UNL1        0.1066
      5 C         144.1543  140.1096  162.1450 C.ar    1  UNL1        0.0199
      6 C         144.2024  140.8916  160.8660 C.ar    1  UNL1        0.0210
      7 C         143.3463  142.1122  160.7005 C.ar    1  UNL1        0.0893
      8 N         143.1821  143.0763  159.5631 N.ar    1  UNL1       -0.2245
      9 C         142.1764  144.1107  159.9739 C.ar    1  UNL1        0.1567
     10 N         141.7099  145.2670  159.1399 N.pl3   1  UNL1       -0.3375
     11 S         141.7191  143.7858  161.3651 S.2     1  UNL1       -0.0519
     12 C         142.4422  142.5507  161.8141 C.ar    1  UNL1        0.0510
     13 C         142.3941  141.7687  163.0932 C.ar    1  UNL1        0.0264
     14 H         142.0708  145.3972  158.2332 H       1  UNL1        0.1442
     15 H         141.0429  145.8956  159.4992 H       1  UNL1        0.1442
     16 C         143.1539  138.9841  165.8169 C.3     1  UNL1        0.1822
     17 C         140.2608  140.1510  169.0601 C.ar    1  UNL1        0.0756
     18 C         139.8119  140.1231  167.6290 C.ar    1  UNL1        0.0062
     19 C         140.7763  139.7341  166.5480 C.ar    1  UNL1       -0.0023
     20 C         142.1895  139.3730  166.8980 C.ar    1  UNL1        0.0017
     21 C         142.6384  139.4010  168.3289 C.ar    1  UNL1       -0.0023
     22 C         141.6740  139.7900  169.4100 C.ar    1  UNL1        0.0062
     23 C         139.2964  140.5400  170.1411 C.2     1  UNL1        0.3413
     24 O         138.0586  139.7246  170.3709 O.2     1  UNL1       -0.2449
     25 C         139.9891  143.0350  170.3533 C.3     1  UNL1        0.2560
     26 O         139.5700  141.7444  170.9925 O.3     1  UNL1       -0.4413
@<TRIPOS>BOND
     1    25    26    1
     2    26    23    1
     3    23    24    2
     4    23    17    1
     5    17    18   ar
     6    18    19   ar
     7    19    20   ar
     8    20    16    1
     9    16     1    1
    10     1     2    2
    11     1     3    2
    12     1     4    1
    13     4     5   ar
    14     5     6   ar
    15     6     7   ar
    16     7     8   ar
    17     8     9   ar
    18     9    10    1
    19     9    11   ar
    20    11    12   ar
    21    12    13   ar
    22    20    21   ar
    23    21    22   ar
    24    22    17   ar
    25    13     4   ar
    26    12     7   ar
    27    10    14    1
    28    10    15    1
@<TRIPOS>MOLECULE
*****
 26 28 0 0 0
SMALL
GASTEIGER

@<TRIPOS>ATOM
      1 S         138.1801  141.5943  162.3331 S.O2    1  UNL1        0.0129
      2 O         137.4053  142.8732  162.4517 O.2     1  UNL1       -0.1683
      3 O         138.9549  140.3155  162.2146 O.2     1  UNL1       -0.1683
      4 C         138.8725  142.1269  161.1136 C.ar    1  UNL1        0.1066
      5 C         138.7956  141.3739  159.8187 C.ar    1  UNL1        0.0199
      6 C         139.4879  141.9065  158.5992 C.ar    1  UNL1        0.0210
      7 C         140.2571  143.1920  158.6748 C.ar    1  UNL1        0.0893
      8 N         141.0359  143.9577  157.6464 N.ar    1  UNL1       -0.2245
      9 C         141.5940  145.1838  158.3059 C.ar    1  UNL1        0.1567
     10 N         142.4378  146.2336  157.6455 N.pl3   1  UNL1       -0.3375
     11 S         141.1602  145.1760  159.7418 S.2     1  UNL1       -0.0519
     12 C         140.3339  143.9450  159.9698 C.ar    1  UNL1        0.0510
     13 C         139.6416  143.4125  161.1892 C.ar    1  UNL1        0.0264
     14 H         142.6710  146.1501  156.6927 H       1  UNL1        0.1442
     15 H         142.7583  147.0061  158.1649 H       1  UNL1        0.1442
     16 C         137.4878  141.0619  163.5526 C.3     1  UNL1        0.1822
     17 C         139.8304  140.3040  167.3193 C.ar    1  UNL1        0.0756
     18 C         138.8453  139.2837  166.8306 C.ar    1  UNL1        0.0062
     19 C         138.0645  139.5363  165.5750 C.ar    1  UNL1       -0.0023
     20 C         138.2687  140.8092  164.8082 C.ar    1  UNL1        0.0017
     21 C         139.2537  141.8294  165.2968 C.ar    1  UNL1       -0.0023
     22 C         140.0345  141.5768  166.5524 C.ar    1  UNL1        0.0062
     23 C         140.6112  140.0513  168.5748 C.2     1  UNL1        0.3413
     24 O         139.8927  139.7719  169.8615 O.2     1  UNL1       -0.2449
     25 C         142.8529  141.2336  169.1470 C.3     1  UNL1        0.2560
     26 O         142.1107  140.0781  168.5437 O.3     1  UNL1       -0.4413
@<TRIPOS>BOND
     1    25    26    1
     2    26    23    1
     3    23    24    2
     4    23    17    1
     5    17    18   ar
     6    18    19   ar
     7    19    20   ar
     8    20    16    1
     9    16     1    1
    10     1     2    2
    11     1     3    2
    12     1     4    1
    13     4     5   ar
    14     5     6   ar
    15     6     7   ar
    16     7     8   ar
    17     8     9   ar
    18     9    10    1
    19     9    11   ar
    20    11    12   ar
    21    12    13   ar
    22    20    21   ar
    23    21    22   ar
    24    22    17   ar
    25    13     4   ar
    26    12     7   ar
    27    10    14    1
    28    10    15    1
@<TRIPOS>MOLECULE
*****
 26 28 0 0 0
SMALL
GASTEIGER

@<TRIPOS>ATOM
      1 S         143.4130  142.2910  164.0671 S.O2    1  UNL1        0.0129
      2 O         143.9619  143.6300  164.4617 O.2     1  UNL1       -0.1683
      3 O         142.8642  140.9519  163.6726 O.2     1  UNL1       -0.1683
      4 C         143.1319  142.8123  162.6890 C.ar    1  UNL1        0.1066
      5 C         142.0826  143.8646  162.4847 C.ar    1  UNL1        0.0199
      6 C         141.8016  144.3859  161.1066 C.ar    1  UNL1        0.0210
      7 C         142.5698  143.8549  159.9328 C.ar    1  UNL1        0.0893
      8 N         142.5130  144.1749  158.4683 N.ar    1  UNL1       -0.2245
      9 C         143.5272  143.3204  157.7676 C.ar    1  UNL1        0.1567
     10 N         143.8085  143.3148  156.2941 N.pl3   1  UNL1       -0.3375
     11 S         144.2108  142.4723  158.7989 S.2     1  UNL1       -0.0519
     12 C         143.6191  142.8027  160.1370 C.ar    1  UNL1        0.0510
     13 C         143.9001  142.2814  161.5151 C.ar    1  UNL1        0.0264
     14 H         143.3044  143.9111  155.6945 H       1  UNL1        0.1442
     15 H         144.4972  142.7149  155.9267 H       1  UNL1        0.1442
     16 C         143.6941  141.7697  165.4452 C.3     1  UNL1        0.1822
     17 C         140.9871  142.8766  168.8652 C.ar    1  UNL1        0.0756
     18 C         142.4412  142.6075  169.1165 C.ar    1  UNL1        0.0062
     19 C         143.3436  142.2385  167.9765 C.ar    1  UNL1       -0.0023
     20 C         142.7918  142.1387  166.5852 C.ar    1  UNL1        0.0017
     21 C         141.3377  142.4078  166.3340 C.ar    1  UNL1       -0.0023
     22 C         140.4353  142.7767  167.4740 C.ar    1  UNL1        0.0062
     23 C         140.0847  143.2456  170.0052 C.2     1  UNL1        0.3413
     24 O         139.9847  144.6745  170.4504 O.2     1  UNL1       -0.2449
     25 C         139.1922  140.8081  170.1134 C.3     1  UNL1        0.2560
     26 O         139.2823  142.1857  170.7000 O.3     1  UNL1       -0.4413
@<TRIPOS>BOND
     1    25    26    1
     2    26    23    1
     3    23    24    2
     4    23    17    1
     5    17    18   ar
     6    18    19   ar
     7    19    20   ar
     8    20    16    1
     9    16     1    1
    10     1     2    2
    11     1     3    2
    12     1     4    1
    13     4     5   ar
    14     5     6   ar
    15     6     7   ar
    16     7     8   ar
    17     8     9   ar
    18     9    10    1
    19     9    11   ar
    20    11    12   ar
    21    12    13   ar
    22    20    21   ar
    23    21    22   ar
    24    22    17   ar
    25    13     4   ar
    26    12     7   ar
    27    10    14    1
    28    10    15    1
