@<TRIPOS>MOLECULE
*****
 35 38 0 0 0
SMALL
GASTEIGER

@<TRIPOS>ATOM
      1 C         141.2103  140.9835  166.6207 C.3     1  UNL1        0.1076
      2 C         140.2592  139.8661  166.3094 C.ar    1  UNL1       -0.0108
      3 C         140.6317  138.8246  165.2963 C.ar    1  UNL1       -0.0035
      4 C         139.6806  137.7071  164.9850 C.ar    1  UNL1       -0.0003
      5 C         138.3570  137.6314  165.6867 C.ar    1  UNL1       -0.0000
      6 C         137.9846  138.6731  166.6998 C.ar    1  UNL1       -0.0003
      7 C         138.9357  139.7904  167.0111 C.ar    1  UNL1       -0.0035
      8 C         140.4012  141.9110  165.7635 C.ar    1  UNL1       -0.0108
      9 C         140.0711  141.5303  164.3506 C.ar    1  UNL1       -0.0035
     10 C         139.2620  142.4579  163.4934 C.ar    1  UNL1       -0.0003
     11 C         138.7829  143.7663  164.0491 C.ar    1  UNL1       -0.0000
     12 C         139.1129  144.1470  165.4619 C.ar    1  UNL1       -0.0003
     13 C         139.9221  143.2194  166.3191 C.ar    1  UNL1       -0.0035
     14 C         142.5641  139.0471  169.8094 C.3     1  UNL1        0.1107
     15 N         141.7550  139.9747  168.9522 N.am    1  UNL1       -0.3022
     16 C         142.0195  140.0559  167.4779 C.2     1  UNL1        0.2292
     17 O         143.0931  139.2094  166.8608 O.2     1  UNL1       -0.2744
     18 H         141.0503  140.5303  169.3572 H       1  UNL1        0.1495
     19 C         142.1615  142.1008  166.9321 C.3     1  UNL1        0.0341
     20 C         143.3719  142.3168  166.0729 C.3     1  UNL1        0.0732
     21 N         143.2110  142.7490  164.6455 N.3     1  UNL1       -0.2725
     22 C         142.8429  144.1682  164.3286 C.3     1  UNL1        0.0748
     23 C         142.6820  144.6004  162.9012 C.3     1  UNL1        0.0485
     24 C         142.8892  143.6134  161.7908 C.3     1  UNL1        0.1096
     25 O         142.5525  144.8375  160.9919 O.3     1  UNL1       -0.3826
     26 C         143.2573  142.1943  162.1078 C.3     1  UNL1        0.0485
     27 C         143.4182  141.7621  163.5351 C.3     1  UNL1        0.0748
     28 H         142.3878  145.5807  161.5930 H       1  UNL1        0.2107
     29 C         142.9794  143.0516  160.4030 C.ar    1  UNL1        0.0019
     30 C         141.7541  142.9824  159.5406 C.ar    1  UNL1       -0.0012
     31 C         141.8444  142.4206  158.1527 C.ar    1  UNL1        0.0111
     32 C         143.1601  141.9280  157.6272 C.ar    1  UNL1        0.0577
     33 CL        143.2504  141.3662  156.2392 Cl      1  UNL1       -0.0822
     34 C         144.3855  141.9973  158.4895 C.ar    1  UNL1        0.0111
     35 C         144.2952  142.5590  159.8774 C.ar    1  UNL1       -0.0012
@<TRIPOS>BOND
     1    14    15    1
     2    15    16   am
     3    16    17    2
     4    16     1    1
     5     1    19    1
     6    19    20    1
     7    20    21    1
     8    21    22    1
     9    22    23    1
    10    23    24    1
    11    24    25    1
    12    24    29    1
    13    29    30   ar
    14    30    31   ar
    15    31    32   ar
    16    32    33    1
    17    32    34   ar
    18    34    35   ar
    19    24    26    1
    20    26    27    1
    21     1     2    1
    22     2     3   ar
    23     3     4   ar
    24     4     5   ar
    25     5     6   ar
    26     6     7   ar
    27     1     8    1
    28     8     9   ar
    29     9    10   ar
    30    10    11   ar
    31    11    12   ar
    32    12    13   ar
    33    27    21    1
    34     7     2   ar
    35    13     8   ar
    36    35    29   ar
    37    15    18    1
    38    25    28    1
@<TRIPOS>MOLECULE
*****
 35 38 0 0 0
SMALL
GASTEIGER

@<TRIPOS>ATOM
      1 C         141.5046  141.0831  166.6979 C.3     1  UNL1        0.1076
      2 C         142.6342  140.2581  166.1563 C.ar    1  UNL1       -0.0108
      3 C         142.9656  138.9366  166.7836 C.ar    1  UNL1       -0.0035
      4 C         144.0953  138.1115  166.2420 C.ar    1  UNL1       -0.0003
      5 C         144.8935  138.6082  165.0732 C.ar    1  UNL1       -0.0000
      6 C         144.5620  139.9298  164.4459 C.ar    1  UNL1       -0.0003
      7 C         143.4324  140.7548  164.9875 C.ar    1  UNL1       -0.0035
      8 C         140.5310  140.2859  165.8816 C.ar    1  UNL1       -0.0108
      9 C         139.3822  139.5916  166.5513 C.ar    1  UNL1       -0.0035
     10 C         138.4086  138.7944  165.7350 C.ar    1  UNL1       -0.0003
     11 C         138.5837  138.6914  164.2488 C.ar    1  UNL1       -0.0000
     12 C         139.7324  139.3855  163.5790 C.ar    1  UNL1       -0.0003
     13 C         140.7060  140.1828  164.3954 C.ar    1  UNL1       -0.0035
     14 C         143.5016  142.5030  169.8197 C.3     1  UNL1        0.1107
     15 N         142.5280  141.7058  169.0034 N.am    1  UNL1       -0.3022
     16 C         142.4781  141.8803  167.5143 C.2     1  UNL1        0.2292
     17 O         143.4019  142.8520  166.8418 O.2     1  UNL1       -0.2744
     18 H         141.9217  141.0680  169.4448 H       1  UNL1        0.1495
     19 C         140.3749  141.9081  167.2396 C.3     1  UNL1        0.0341
     20 C         140.0557  143.2384  166.6246 C.3     1  UNL1        0.0732
     21 N         139.6473  143.3199  165.1835 N.3     1  UNL1       -0.2725
     22 C         138.2364  143.0032  164.7847 C.3     1  UNL1        0.0748
     23 C         137.8281  143.0847  163.3437 C.3     1  UNL1        0.0485
     24 C         138.8307  143.4828  162.3014 C.3     1  UNL1        0.1096
     25 O         137.6222  143.2800  161.4364 O.3     1  UNL1       -0.3826
     26 C         140.2416  143.7995  162.7002 C.3     1  UNL1        0.0485
     27 C         140.6499  143.7180  164.1412 C.3     1  UNL1        0.0748
     28 H         136.8709  143.0115  161.9882 H       1  UNL1        0.2107
     29 C         139.4135  143.8105  160.9587 C.ar    1  UNL1        0.0019
     30 C         140.2209  145.0614  160.7766 C.ar    1  UNL1       -0.0012
     31 C         140.8037  145.3891  159.4337 C.ar    1  UNL1        0.0111
     32 C         140.5790  144.4658  158.2732 C.ar    1  UNL1        0.0577
     33 CL        141.1618  144.7935  156.9303 Cl      1  UNL1       -0.0822
     34 C         139.7715  143.2149  158.4553 C.ar    1  UNL1        0.0111
     35 C         139.1888  142.8872  159.7981 C.ar    1  UNL1       -0.0012
@<TRIPOS>BOND
     1    14    15    1
     2    15    16   am
     3    16    17    2
     4    16     1    1
     5     1    19    1
     6    19    20    1
     7    20    21    1
     8    21    22    1
     9    22    23    1
    10    23    24    1
    11    24    25    1
    12    24    29    1
    13    29    30   ar
    14    30    31   ar
    15    31    32   ar
    16    32    33    1
    17    32    34   ar
    18    34    35   ar
    19    24    26    1
    20    26    27    1
    21     1     2    1
    22     2     3   ar
    23     3     4   ar
    24     4     5   ar
    25     5     6   ar
    26     6     7   ar
    27     1     8    1
    28     8     9   ar
    29     9    10   ar
    30    10    11   ar
    31    11    12   ar
    32    12    13   ar
    33    27    21    1
    34     7     2   ar
    35    13     8   ar
    36    35    29   ar
    37    15    18    1
    38    25    28    1
@<TRIPOS>MOLECULE
*****
 35 38 0 0 0
SMALL
GASTEIGER

@<TRIPOS>ATOM
      1 C         140.9936  141.5175  165.6365 C.3     1  UNL1        0.1076
      2 C         140.0298  140.3841  165.8276 C.ar    1  UNL1       -0.0108
      3 C         139.2538  140.2670  167.1059 C.ar    1  UNL1       -0.0035
      4 C         138.2900  139.1336  167.2971 C.ar    1  UNL1       -0.0003
      5 C         138.1022  138.1173  166.2099 C.ar    1  UNL1       -0.0000
      6 C         138.8783  138.2345  164.9315 C.ar    1  UNL1       -0.0003
      7 C         139.8421  139.3679  164.7405 C.ar    1  UNL1       -0.0035
      8 C         139.8625  142.4084  165.2161 C.ar    1  UNL1       -0.0108
      9 C         138.9919  142.0193  164.0581 C.ar    1  UNL1       -0.0035
     10 C         137.8608  142.9103  163.6376 C.ar    1  UNL1       -0.0003
     11 C         137.6002  144.1903  164.3750 C.ar    1  UNL1       -0.0000
     12 C         138.4708  144.5793  165.5329 C.ar    1  UNL1       -0.0003
     13 C         139.6020  143.6884  165.9534 C.ar    1  UNL1       -0.0035
     14 C         143.8786  138.7964  165.4876 C.3     1  UNL1        0.1107
     15 N         142.7475  139.6873  165.0671 N.am    1  UNL1       -0.3022
     16 C         142.1247  140.6266  166.0570 C.2     1  UNL1        0.2292
     17 O         142.6330  140.6749  167.4674 O.2     1  UNL1       -0.2744
     18 H         142.4139  139.6556  164.1414 H       1  UNL1        0.1495
     19 C         141.9574  142.6509  165.4455 C.3     1  UNL1        0.0341
     20 C         142.6304  142.8477  164.1195 C.3     1  UNL1        0.0732
     21 N         141.8858  143.4940  162.9890 N.3     1  UNL1       -0.2725
     22 C         141.2795  144.8538  163.1706 C.3     1  UNL1        0.0748
     23 C         140.5349  145.5001  162.0402 C.3     1  UNL1        0.0485
     24 C         140.3966  144.7864  160.7281 C.3     1  UNL1        0.1096
     25 O         139.6525  146.0510  160.4165 O.3     1  UNL1       -0.3826
     26 C         141.0029  143.4265  160.5465 C.3     1  UNL1        0.0485
     27 C         141.7475  142.7803  161.6769 C.3     1  UNL1        0.0748
     28 H         139.6577  146.6294  161.1951 H       1  UNL1        0.2107
     29 C         139.9999  144.5120  159.3078 C.ar    1  UNL1        0.0019
     30 C         139.2510  143.2577  158.9671 C.ar    1  UNL1       -0.0012
     31 C         138.8543  142.9834  157.5467 C.ar    1  UNL1        0.0111
     32 C         139.2065  143.9633  156.4671 C.ar    1  UNL1        0.0577
     33 CL        138.8097  143.6889  155.0467 Cl      1  UNL1       -0.0822
     34 C         139.9553  145.2176  156.8078 C.ar    1  UNL1        0.0111
     35 C         140.3520  145.4919  158.2281 C.ar    1  UNL1       -0.0012
@<TRIPOS>BOND
     1    14    15    1
     2    15    16   am
     3    16    17    2
     4    16     1    1
     5     1    19    1
     6    19    20    1
     7    20    21    1
     8    21    22    1
     9    22    23    1
    10    23    24    1
    11    24    25    1
    12    24    29    1
    13    29    30   ar
    14    30    31   ar
    15    31    32   ar
    16    32    33    1
    17    32    34   ar
    18    34    35   ar
    19    24    26    1
    20    26    27    1
    21     1     2    1
    22     2     3   ar
    23     3     4   ar
    24     4     5   ar
    25     5     6   ar
    26     6     7   ar
    27     1     8    1
    28     8     9   ar
    29     9    10   ar
    30    10    11   ar
    31    11    12   ar
    32    12    13   ar
    33    27    21    1
    34     7     2   ar
    35    13     8   ar
    36    35    29   ar
    37    15    18    1
    38    25    28    1
@<TRIPOS>MOLECULE
*****
 35 38 0 0 0
SMALL
GASTEIGER

@<TRIPOS>ATOM
      1 C         141.0842  141.5636  165.0113 C.3     1  UNL1        0.1076
      2 C         139.9508  142.4531  164.5942 C.ar    1  UNL1       -0.0108
      3 C         139.1580  142.1300  163.3626 C.ar    1  UNL1       -0.0035
      4 C         138.0245  143.0196  162.9454 C.ar    1  UNL1       -0.0003
      5 C         137.6839  144.2322  163.7600 C.ar    1  UNL1       -0.0000
      6 C         138.4768  144.5553  164.9917 C.ar    1  UNL1       -0.0003
      7 C         139.6102  143.6658  165.4088 C.ar    1  UNL1       -0.0035
      8 C         140.1389  140.7498  165.8444 C.ar    1  UNL1       -0.0108
      9 C         140.2489  140.7709  167.3403 C.ar    1  UNL1       -0.0035
     10 C         139.3037  139.9570  168.1733 C.ar    1  UNL1       -0.0003
     11 C         138.2484  139.1221  167.5107 C.ar    1  UNL1       -0.0000
     12 C         138.1383  139.1010  166.0149 C.ar    1  UNL1       -0.0003
     13 C         139.0836  139.9148  165.1817 C.ar    1  UNL1       -0.0035
     14 C         142.9806  143.0393  161.8528 C.3     1  UNL1        0.1107
     15 N         142.0353  142.2255  162.6859 N.am    1  UNL1       -0.3022
     16 C         142.0295  142.3774  164.1782 C.2     1  UNL1        0.2292
     17 O         142.9690  143.3433  164.8374 O.2     1  UNL1       -0.2744
     18 H         141.4187  141.5916  162.2533 H       1  UNL1        0.1495
     19 C         142.2178  140.6740  165.4284 C.3     1  UNL1        0.0341
     20 C         142.3403  139.2950  164.8513 C.3     1  UNL1        0.0732
     21 N         142.4966  139.1127  163.3706 N.3     1  UNL1       -0.2725
     22 C         143.8150  139.3984  162.7148 C.3     1  UNL1        0.0748
     23 C         143.9713  139.2161  161.2342 C.3     1  UNL1        0.0485
     24 C         142.8091  138.7481  160.4094 C.3     1  UNL1        0.1096
     25 O         143.8494  138.8882  159.3379 O.3     1  UNL1       -0.3826
     26 C         141.4907  138.4623  161.0652 C.3     1  UNL1        0.0485
     27 C         141.3345  138.6446  162.5458 C.3     1  UNL1        0.0748
     28 H         144.6813  139.1931  159.7327 H       1  UNL1        0.2107
     29 C         142.0083  138.3287  159.2124 C.ar    1  UNL1        0.0019
     30 C         140.5659  138.7244  159.0988 C.ar    1  UNL1       -0.0012
     31 C         139.7652  138.3049  157.9017 C.ar    1  UNL1        0.0111
     32 C         140.4069  137.4898  156.8183 C.ar    1  UNL1        0.0577
     33 CL        139.6061  137.0704  155.6212 Cl      1  UNL1       -0.0822
     34 C         141.8493  137.0941  156.9319 C.ar    1  UNL1        0.0111
     35 C         142.6500  137.5135  158.1289 C.ar    1  UNL1       -0.0012
@<TRIPOS>BOND
     1    14    15    1
     2    15    16   am
     3    16    17    2
     4    16     1    1
     5     1    19    1
     6    19    20    1
     7    20    21    1
     8    21    22    1
     9    22    23    1
    10    23    24    1
    11    24    25    1
    12    24    29    1
    13    29    30   ar
    14    30    31   ar
    15    31    32   ar
    16    32    33    1
    17    32    34   ar
    18    34    35   ar
    19    24    26    1
    20    26    27    1
    21     1     2    1
    22     2     3   ar
    23     3     4   ar
    24     4     5   ar
    25     5     6   ar
    26     6     7   ar
    27     1     8    1
    28     8     9   ar
    29     9    10   ar
    30    10    11   ar
    31    11    12   ar
    32    12    13   ar
    33    27    21    1
    34     7     2   ar
    35    13     8   ar
    36    35    29   ar
    37    15    18    1
    38    25    28    1
@<TRIPOS>MOLECULE
*****
 35 38 0 0 0
SMALL
GASTEIGER

@<TRIPOS>ATOM
      1 C         141.3767  141.5288  165.8672 C.3     1  UNL1        0.1076
      2 C         141.4954  142.1187  167.2412 C.ar    1  UNL1       -0.0108
      3 C         142.7703  141.9641  168.0161 C.ar    1  UNL1       -0.0035
      4 C         142.8891  142.5541  169.3902 C.ar    1  UNL1       -0.0003
      5 C         141.7328  143.2986  169.9892 C.ar    1  UNL1       -0.0000
      6 C         140.4578  143.4532  169.2142 C.ar    1  UNL1       -0.0003
      7 C         140.3391  142.8632  167.8402 C.ar    1  UNL1       -0.0035
      8 C         142.1534  142.6822  165.3049 C.ar    1  UNL1       -0.0108
      9 C         141.4447  143.7645  164.5455 C.ar    1  UNL1       -0.0035
     10 C         142.2214  144.9179  163.9831 C.ar    1  UNL1       -0.0003
     11 C         143.7068  144.9891  164.1801 C.ar    1  UNL1       -0.0000
     12 C         144.4154  143.9069  164.9394 C.ar    1  UNL1       -0.0003
     13 C         143.6387  142.7534  165.5018 C.ar    1  UNL1       -0.0035
     14 C         138.4019  138.9972  166.5684 C.3     1  UNL1        0.1107
     15 N         139.1786  140.1506  166.0061 N.am    1  UNL1       -0.3022
     16 C         140.6000  140.3753  166.4296 C.2     1  UNL1        0.2292
     17 O         141.2446  139.4466  167.4154 O.2     1  UNL1       -0.2744
     18 H         138.7555  140.7602  165.3590 H       1  UNL1        0.1495
     19 C         141.2579  140.9387  164.4932 C.3     1  UNL1        0.0341
     20 C         142.1613  139.8153  164.0788 C.3     1  UNL1        0.0732
     21 N         142.3556  139.5069  162.6237 N.3     1  UNL1       -0.2725
     22 C         143.6409  139.8757  161.9440 C.3     1  UNL1        0.0748
     23 C         143.8352  139.5673  160.4890 C.3     1  UNL1        0.0485
     24 C         142.7442  138.8901  159.7136 C.3     1  UNL1        0.1096
     25 O         143.7749  139.0421  158.6345 O.3     1  UNL1       -0.3826
     26 C         141.4589  138.5214  160.3933 C.3     1  UNL1        0.0485
     27 C         141.2646  138.8298  161.8483 C.3     1  UNL1        0.0748
     28 H         144.5617  139.4777  158.9980 H       1  UNL1        0.2107
     29 C         142.0112  138.2658  158.5635 C.ar    1  UNL1        0.0019
     30 C         140.5897  138.6525  158.2812 C.ar    1  UNL1       -0.0012
     31 C         139.8568  138.0280  157.1310 C.ar    1  UNL1        0.0111
     32 C         140.5454  137.0169  156.2631 C.ar    1  UNL1        0.0577
     33 CL        139.8124  136.3925  155.1128 Cl      1  UNL1       -0.0822
     34 C         141.9669  136.6302  156.5453 C.ar    1  UNL1        0.0111
     35 C         142.6998  137.2546  157.6955 C.ar    1  UNL1       -0.0012
@<TRIPOS>BOND
     1    14    15    1
     2    15    16   am
     3    16    17    2
     4    16     1    1
     5     1    19    1
     6    19    20    1
     7    20    21    1
     8    21    22    1
     9    22    23    1
    10    23    24    1
    11    24    25    1
    12    24    29    1
    13    29    30   ar
    14    30    31   ar
    15    31    32   ar
    16    32    33    1
    17    32    34   ar
    18    34    35   ar
    19    24    26    1
    20    26    27    1
    21     1     2    1
    22     2     3   ar
    23     3     4   ar
    24     4     5   ar
    25     5     6   ar
    26     6     7   ar
    27     1     8    1
    28     8     9   ar
    29     9    10   ar
    30    10    11   ar
    31    11    12   ar
    32    12    13   ar
    33    27    21    1
    34     7     2   ar
    35    13     8   ar
    36    35    29   ar
    37    15    18    1
    38    25    28    1
@<TRIPOS>MOLECULE
*****
 35 38 0 0 0
SMALL
GASTEIGER

@<TRIPOS>ATOM
      1 C         140.9249  141.1791  165.8790 C.3     1  UNL1        0.1076
      2 C         139.8910  142.1703  165.4335 C.ar    1  UNL1       -0.0108
      3 C         138.8536  141.7707  164.4266 C.ar    1  UNL1       -0.0035
      4 C         137.8197  142.7620  163.9811 C.ar    1  UNL1       -0.0003
      5 C         137.8233  144.1529  164.5425 C.ar    1  UNL1       -0.0000
      6 C         138.8608  144.5526  165.5495 C.ar    1  UNL1       -0.0003
      7 C         139.8946  143.5613  165.9950 C.ar    1  UNL1       -0.0035
      8 C         141.9720  141.9231  165.1044 C.ar    1  UNL1       -0.0108
      9 C         143.1942  142.4418  165.8025 C.ar    1  UNL1       -0.0035
     10 C         144.2413  143.1858  165.0280 C.ar    1  UNL1       -0.0003
     11 C         144.0663  143.4111  163.5554 C.ar    1  UNL1       -0.0000
     12 C         142.8442  142.8925  162.8573 C.ar    1  UNL1       -0.0003
     13 C         141.7970  142.1484  163.6318 C.ar    1  UNL1       -0.0035
     14 C         137.9661  138.6776  166.7383 C.3     1  UNL1        0.1107
     15 N         139.0132  139.4217  165.9638 N.am    1  UNL1       -0.3022
     16 C         139.8777  140.4350  166.6535 C.2     1  UNL1        0.2292
     17 O         139.6951  140.7044  168.1178 O.2     1  UNL1       -0.2744
     18 H         139.1331  139.2449  165.0027 H       1  UNL1        0.1495
     19 C         141.9587  140.1877  166.3245 C.3     1  UNL1        0.0341
     20 C         142.0618  138.8547  165.6444 C.3     1  UNL1        0.0732
     21 N         142.3130  138.7838  164.1672 N.3     1  UNL1       -0.2725
     22 C         143.6965  139.0024  163.6304 C.3     1  UNL1        0.0748
     23 C         143.9476  138.9315  162.1533 C.3     1  UNL1        0.0485
     24 C         142.8153  138.6420  161.2131 C.3     1  UNL1        0.1096
     25 O         143.9414  138.7762  160.2312 O.3     1  UNL1       -0.3826
     26 C         141.4319  138.4234  161.7499 C.3     1  UNL1        0.0485
     27 C         141.1807  138.4943  163.2270 C.3     1  UNL1        0.0748
     28 H         144.7640  138.9699  160.7073 H       1  UNL1        0.2107
     29 C         142.0741  138.3991  159.9318 C.ar    1  UNL1        0.0019
     30 C         140.6676  138.8956  159.7731 C.ar    1  UNL1       -0.0012
     31 C         139.9265  138.6527  158.4918 C.ar    1  UNL1        0.0111
     32 C         140.5920  137.9133  157.3691 C.ar    1  UNL1        0.0577
     33 CL        139.8508  137.6704  156.0878 Cl      1  UNL1       -0.0822
     34 C         141.9985  137.4168  157.5278 C.ar    1  UNL1        0.0111
     35 C         142.7396  137.6597  158.8090 C.ar    1  UNL1       -0.0012
@<TRIPOS>BOND
     1    14    15    1
     2    15    16   am
     3    16    17    2
     4    16     1    1
     5     1    19    1
     6    19    20    1
     7    20    21    1
     8    21    22    1
     9    22    23    1
    10    23    24    1
    11    24    25    1
    12    24    29    1
    13    29    30   ar
    14    30    31   ar
    15    31    32   ar
    16    32    33    1
    17    32    34   ar
    18    34    35   ar
    19    24    26    1
    20    26    27    1
    21     1     2    1
    22     2     3   ar
    23     3     4   ar
    24     4     5   ar
    25     5     6   ar
    26     6     7   ar
    27     1     8    1
    28     8     9   ar
    29     9    10   ar
    30    10    11   ar
    31    11    12   ar
    32    12    13   ar
    33    27    21    1
    34     7     2   ar
    35    13     8   ar
    36    35    29   ar
    37    15    18    1
    38    25    28    1
@<TRIPOS>MOLECULE
*****
 35 38 0 0 0
SMALL
GASTEIGER

@<TRIPOS>ATOM
      1 C         142.9702  140.0921  161.1115 C.3     1  UNL1        0.1076
      2 C         142.8845  141.3101  160.2402 C.ar    1  UNL1       -0.0108
      3 C         144.0799  141.7519  159.4492 C.ar    1  UNL1       -0.0035
      4 C         143.9942  142.9700  158.5779 C.ar    1  UNL1       -0.0003
      5 C         142.7132  143.7462  158.4977 C.ar    1  UNL1       -0.0000
      6 C         141.5177  143.3043  159.2888 C.ar    1  UNL1       -0.0003
      7 C         141.6034  142.0863  160.1601 C.ar    1  UNL1       -0.0035
      8 C         143.5700  140.9196  162.2093 C.ar    1  UNL1       -0.0108
      9 C         144.9343  140.5889  162.7380 C.ar    1  UNL1       -0.0035
     10 C         145.5341  141.4164  163.8359 C.ar    1  UNL1       -0.0003
     11 C         144.7697  142.5746  164.4052 C.ar    1  UNL1       -0.0000
     12 C         143.4055  142.9054  163.8766 C.ar    1  UNL1       -0.0003
     13 C         142.8056  142.0779  162.7786 C.ar    1  UNL1       -0.0035
     14 C         142.6529  137.5898  158.0475 C.3     1  UNL1        0.1107
     15 N         143.2527  138.4173  159.1454 N.am    1  UNL1       -0.3022
     16 C         142.3704  139.2646  160.0136 C.2     1  UNL1        0.2292
     17 O         140.8882  139.2843  159.7838 O.2     1  UNL1       -0.2744
     18 H         144.2255  138.4044  159.2962 H       1  UNL1        0.1495
     19 C         143.0559  138.8740  161.9827 C.3     1  UNL1        0.0341
     20 C         141.9272  138.5347  162.9105 C.3     1  UNL1        0.0732
     21 N         141.9914  138.9461  164.3516 N.3     1  UNL1       -0.2725
     22 C         143.0773  138.4105  165.2369 C.3     1  UNL1        0.0748
     23 C         143.1415  138.8220  166.6779 C.3     1  UNL1        0.0485
     24 C         142.1197  139.7691  167.2336 C.3     1  UNL1        0.1096
     25 O         142.9510  139.5340  168.4598 O.3     1  UNL1       -0.3826
     26 C         141.0337  140.3047  166.3484 C.3     1  UNL1        0.0485
     27 C         140.9696  139.8933  164.9074 C.3     1  UNL1        0.0748
     28 H         143.6735  138.9223  168.2482 H       1  UNL1        0.2107
     29 C         141.3866  140.6346  168.2153 C.ar    1  UNL1        0.0019
     30 C         140.2327  140.0749  168.9932 C.ar    1  UNL1       -0.0012
     31 C         139.4997  140.9405  169.9749 C.ar    1  UNL1        0.0111
     32 C         139.9207  142.3657  170.1785 C.ar    1  UNL1        0.0577
     33 CL        139.1876  143.2312  171.1602 Cl      1  UNL1       -0.0822
     34 C         141.0746  142.9254  169.4005 C.ar    1  UNL1        0.0111
     35 C         141.8076  142.0598  168.4189 C.ar    1  UNL1       -0.0012
@<TRIPOS>BOND
     1    14    15    1
     2    15    16   am
     3    16    17    2
     4    16     1    1
     5     1    19    1
     6    19    20    1
     7    20    21    1
     8    21    22    1
     9    22    23    1
    10    23    24    1
    11    24    25    1
    12    24    29    1
    13    29    30   ar
    14    30    31   ar
    15    31    32   ar
    16    32    33    1
    17    32    34   ar
    18    34    35   ar
    19    24    26    1
    20    26    27    1
    21     1     2    1
    22     2     3   ar
    23     3     4   ar
    24     4     5   ar
    25     5     6   ar
    26     6     7   ar
    27     1     8    1
    28     8     9   ar
    29     9    10   ar
    30    10    11   ar
    31    11    12   ar
    32    12    13   ar
    33    27    21    1
    34     7     2   ar
    35    13     8   ar
    36    35    29   ar
    37    15    18    1
    38    25    28    1
@<TRIPOS>MOLECULE
*****
 35 38 0 0 0
SMALL
GASTEIGER

@<TRIPOS>ATOM
      1 C         141.1213  141.6855  165.3889 C.3     1  UNL1        0.1076
      2 C         141.4374  142.0830  166.8003 C.ar    1  UNL1       -0.0108
      3 C         142.7843  141.7729  167.3830 C.ar    1  UNL1       -0.0035
      4 C         143.1005  142.1705  168.7944 C.ar    1  UNL1       -0.0003
      5 C         142.0697  142.8782  169.6230 C.ar    1  UNL1       -0.0000
      6 C         140.7228  143.1884  169.0403 C.ar    1  UNL1       -0.0003
      7 C         140.4066  142.7908  167.6289 C.ar    1  UNL1       -0.0035
      8 C         141.8210  142.9133  164.8863 C.ar    1  UNL1       -0.0108
      9 C         141.0247  144.0515  164.3201 C.ar    1  UNL1       -0.0035
     10 C         141.7245  145.2794  163.8175 C.ar    1  UNL1       -0.0003
     11 C         143.2204  145.3691  163.8810 C.ar    1  UNL1       -0.0000
     12 C         144.0167  144.2310  164.4472 C.ar    1  UNL1       -0.0003
     13 C         143.3169  143.0031  164.9499 C.ar    1  UNL1       -0.0035
     14 C         138.2309  139.1144  166.2753 C.3     1  UNL1        0.1107
     15 N         138.9306  140.3423  165.7726 N.am    1  UNL1       -0.3022
     16 C         140.4215  140.4576  165.8916 C.2     1  UNL1        0.2292
     17 O         141.2126  139.3450  166.5132 O.2     1  UNL1       -0.2744
     18 H         138.4114  141.0725  165.3647 H       1  UNL1        0.1495
     19 C         140.8051  141.2878  163.9775 C.3     1  UNL1        0.0341
     20 C         141.8981  140.8018  163.0725 C.3     1  UNL1        0.0732
     21 N         142.2663  141.5903  161.8507 N.3     1  UNL1       -0.2725
     22 C         143.6948  141.6469  161.3969 C.3     1  UNL1        0.0748
     23 C         144.0630  142.4354  160.1752 C.3     1  UNL1        0.0485
     24 C         143.0025  143.1672  159.4071 C.3     1  UNL1        0.1096
     25 O         144.2083  143.5206  158.5878 O.3     1  UNL1       -0.3826
     26 C         141.5739  143.1105  159.8608 C.3     1  UNL1        0.0485
     27 C         141.2058  142.3221  161.0826 C.3     1  UNL1        0.0748
     28 H         144.9951  143.1057  158.9748 H       1  UNL1        0.2107
     29 C         142.3609  144.0217  158.3545 C.ar    1  UNL1        0.0019
     30 C         141.4258  145.1253  158.7515 C.ar    1  UNL1       -0.0012
     31 C         140.7842  145.9798  157.6988 C.ar    1  UNL1        0.0111
     32 C         141.0777  145.7307  156.2491 C.ar    1  UNL1        0.0577
     33 CL        140.4361  146.5853  155.1963 Cl      1  UNL1       -0.0822
     34 C         142.0128  144.6271  155.8520 C.ar    1  UNL1        0.0111
     35 C         142.6544  143.7726  156.9047 C.ar    1  UNL1       -0.0012
@<TRIPOS>BOND
     1    14    15    1
     2    15    16   am
     3    16    17    2
     4    16     1    1
     5     1    19    1
     6    19    20    1
     7    20    21    1
     8    21    22    1
     9    22    23    1
    10    23    24    1
    11    24    25    1
    12    24    29    1
    13    29    30   ar
    14    30    31   ar
    15    31    32   ar
    16    32    33    1
    17    32    34   ar
    18    34    35   ar
    19    24    26    1
    20    26    27    1
    21     1     2    1
    22     2     3   ar
    23     3     4   ar
    24     4     5   ar
    25     5     6   ar
    26     6     7   ar
    27     1     8    1
    28     8     9   ar
    29     9    10   ar
    30    10    11   ar
    31    11    12   ar
    32    12    13   ar
    33    27    21    1
    34     7     2   ar
    35    13     8   ar
    36    35    29   ar
    37    15    18    1
    38    25    28    1
@<TRIPOS>MOLECULE
*****
 35 38 0 0 0
SMALL
GASTEIGER

@<TRIPOS>ATOM
      1 C         141.6458  140.5528  165.4166 C.3     1  UNL1        0.1076
      2 C         142.1315  140.7601  166.8205 C.ar    1  UNL1       -0.0108
      3 C         142.4641  142.1409  167.3028 C.ar    1  UNL1       -0.0035
      4 C         142.9498  142.3482  168.7068 C.ar    1  UNL1       -0.0003
      5 C         143.1028  141.1747  169.6285 C.ar    1  UNL1       -0.0000
      6 C         142.7701  139.7938  169.1461 C.ar    1  UNL1       -0.0003
      7 C         142.2845  139.5865  167.7422 C.ar    1  UNL1       -0.0035
      8 C         143.0272  140.8236  164.8987 C.ar    1  UNL1       -0.0108
      9 C         143.4745  142.2350  164.6576 C.ar    1  UNL1       -0.0035
     10 C         144.8559  142.5059  164.1397 C.ar    1  UNL1       -0.0003
     11 C         145.7902  141.3654  163.8630 C.ar    1  UNL1       -0.0000
     12 C         145.3430  139.9541  164.1040 C.ar    1  UNL1       -0.0003
     13 C         143.9615  139.6832  164.6219 C.ar    1  UNL1       -0.0035
     14 C         138.2724  138.6512  166.2847 C.3     1  UNL1        0.1107
     15 N         139.6538  138.9220  165.7668 N.am    1  UNL1       -0.3022
     16 C         140.2644  140.2819  165.9344 C.2     1  UNL1        0.2292
     17 O         139.4935  141.3709  166.6199 O.2     1  UNL1       -0.2744
     18 H         140.1598  138.2073  165.3170 H       1  UNL1        0.1495
     19 C         141.1601  140.3455  164.0125 C.3     1  UNL1        0.0341
     20 C         140.1278  141.2662  163.4324 C.3     1  UNL1        0.0732
     21 N         140.5243  142.2863  162.4065 N.3     1  UNL1       -0.2725
     22 C         140.8167  143.6966  162.8252 C.3     1  UNL1        0.0748
     23 C         141.2132  144.7166  161.7994 C.3     1  UNL1        0.0485
     24 C         141.3172  144.3262  160.3548 C.3     1  UNL1        0.1096
     25 O         141.6909  145.7758  160.2605 O.3     1  UNL1       -0.3826
     26 C         141.0248  142.9158  159.9361 C.3     1  UNL1        0.0485
     27 C         140.6283  141.8959  160.9620 C.3     1  UNL1        0.0748
     28 H         141.6669  146.1741  161.1446 H       1  UNL1        0.2107
     29 C         141.5511  144.4393  158.8775 C.ar    1  UNL1        0.0019
     30 C         142.6277  143.6247  158.2239 C.ar    1  UNL1       -0.0012
     31 C         142.8614  143.7379  156.7465 C.ar    1  UNL1        0.0111
     32 C         142.0185  144.6658  155.9228 C.ar    1  UNL1        0.0577
     33 CL        142.2523  144.7789  154.4454 Cl      1  UNL1       -0.0822
     34 C         140.9419  145.4804  156.5764 C.ar    1  UNL1        0.0111
     35 C         140.7082  145.3672  158.0537 C.ar    1  UNL1       -0.0012
@<TRIPOS>BOND
     1    14    15    1
     2    15    16   am
     3    16    17    2
     4    16     1    1
     5     1    19    1
     6    19    20    1
     7    20    21    1
     8    21    22    1
     9    22    23    1
    10    23    24    1
    11    24    25    1
    12    24    29    1
    13    29    30   ar
    14    30    31   ar
    15    31    32   ar
    16    32    33    1
    17    32    34   ar
    18    34    35   ar
    19    24    26    1
    20    26    27    1
    21     1     2    1
    22     2     3   ar
    23     3     4   ar
    24     4     5   ar
    25     5     6   ar
    26     6     7   ar
    27     1     8    1
    28     8     9   ar
    29     9    10   ar
    30    10    11   ar
    31    11    12   ar
    32    12    13   ar
    33    27    21    1
    34     7     2   ar
    35    13     8   ar
    36    35    29   ar
    37    15    18    1
    38    25    28    1
