@<TRIPOS>MOLECULE
*****
 36 39 0 0 0
SMALL
GASTEIGER

@<TRIPOS>ATOM
      1 N         141.2605  143.6976  163.7261 N.ar    1  UNL1       -0.2459
      2 C         141.4441  143.2153  162.3177 C.ar    1  UNL1        0.1116
      3 C         142.8534  143.5195  161.9035 C.ar    1  UNL1        0.0908
      4 C         143.5407  144.1898  163.0560 C.ar    1  UNL1        0.1363
      5 N         142.5563  144.2998  164.1824 N.ar    1  UNL1       -0.1661
      6 N         143.4675  143.2080  160.5709 N.am    1  UNL1       -0.2762
      7 C         143.7588  141.7859  160.1933 C.2     1  UNL1        0.2754
      8 O         143.4360  140.6752  161.1484 O.2     1  UNL1       -0.2675
      9 H         143.6793  143.9370  159.9441 H       1  UNL1        0.1553
     10 C         144.3728  141.4745  158.8607 C.ar    1  UNL1        0.1872
     11 N         144.2788  140.1677  158.1303 N.ar    1  UNL1       -0.1361
     12 N         145.0366  140.3008  156.8427 N.ar    1  UNL1       -0.1391
     13 C         145.5990  141.6898  156.7772 C.ar    1  UNL1        0.1529
     14 S         145.1888  142.4152  158.0245 S.2     1  UNL1       -0.0394
     15 C         146.4264  142.2543  155.6606 C.ar    1  UNL1        0.1260
     16 C         147.8869  141.9247  155.5686 C.ar    1  UNL1        0.1201
     17 N         148.7142  142.4892  154.4520 N.ar    1  UNL1       -0.2390
     18 C         148.0811  143.3834  153.4275 C.ar    1  UNL1        0.1195
     19 C         146.6207  143.7130  153.5195 C.ar    1  UNL1        0.1195
     20 N         145.7933  143.1484  154.6361 N.ar    1  UNL1       -0.2385
     21 C         139.2342  144.8350  164.8882 C.3     1  UNL1        0.0312
     22 C         140.0020  143.5955  164.5360 C.3     1  UNL1        0.1274
     23 C         139.5114  142.2539  164.9936 C.ar    1  UNL1        0.0038
     24 C         140.0021  141.6776  166.2886 C.ar    1  UNL1       -0.0025
     25 C         139.5114  140.3361  166.7462 C.ar    1  UNL1        0.0036
     26 C         138.5301  139.5708  165.9088 C.ar    1  UNL1        0.0714
     27 C         138.0394  140.1470  164.6137 C.ar    1  UNL1        0.0074
     28 C         138.5301  141.4886  164.1562 C.ar    1  UNL1        0.0692
     29 C         138.0395  138.2291  166.3664 C.3     1  UNL1        0.4186
     30 F         137.5489  136.8875  166.8240 F       1  UNL1       -0.1659
     31 F         137.4733  138.8585  167.6047 F       1  UNL1       -0.1659
     32 F         138.6056  137.5998  165.1281 F       1  UNL1       -0.1659
     33 C         138.0394  142.0649  162.8611 C.3     1  UNL1        0.4183
     34 F         137.5488  142.6412  161.5661 F       1  UNL1       -0.1659
     35 F         137.0308  142.8858  163.6085 F       1  UNL1       -0.1659
     36 F         139.0480  141.2440  162.1136 F       1  UNL1       -0.1659
@<TRIPOS>BOND
     1    22    21    1
     2    22    23    1
     3    23    24   ar
     4    24    25   ar
     5    25    26   ar
     6    26    29    1
     7    29    30    1
     8    29    31    1
     9    29    32    1
    10    26    27   ar
    11    27    28   ar
    12    28    33    1
    13    33    34    1
    14    33    35    1
    15    33    36    1
    16    22     1    1
    17     1     2   ar
    18     2     3   ar
    19     3     6    1
    20     6     7   am
    21     7     8    2
    22     7    10    1
    23    10    11   ar
    24    11    12   ar
    25    12    13   ar
    26    13    15    1
    27    15    16   ar
    28    16    17   ar
    29    17    18   ar
    30    18    19   ar
    31    19    20   ar
    32    13    14   ar
    33     3     4   ar
    34     4     5   ar
    35    28    23   ar
    36     5     1   ar
    37    14    10   ar
    38    20    15   ar
    39     6     9    1
@<TRIPOS>MOLECULE
*****
 36 39 0 0 0
SMALL
GASTEIGER

@<TRIPOS>ATOM
      1 N         141.6753  143.0939  163.7697 N.ar    1  UNL1       -0.2459
      2 C         141.9257  142.2209  162.5759 C.ar    1  UNL1        0.1116
      3 C         143.3215  142.4840  162.0938 C.ar    1  UNL1        0.0908
      4 C         143.9338  143.5196  162.9897 C.ar    1  UNL1        0.1363
      5 N         142.9164  143.8965  164.0254 N.ar    1  UNL1       -0.1661
      6 N         143.9880  141.8269  160.9217 N.am    1  UNL1       -0.2762
      7 C         143.8648  142.4299  159.5538 C.2     1  UNL1        0.2754
      8 O         143.0751  143.6902  159.3581 O.2     1  UNL1       -0.2675
      9 H         144.5063  140.9997  161.0501 H       1  UNL1        0.1553
     10 C         144.5313  141.7728  158.3816 C.ar    1  UNL1        0.1872
     11 N         144.2865  140.3740  157.8983 N.ar    1  UNL1       -0.1361
     12 N         145.1635  140.1358  156.7050 N.ar    1  UNL1       -0.1391
     13 C         145.9503  141.3874  156.4507 C.ar    1  UNL1        0.1529
     14 S         145.5596  142.3991  157.4870 S.2     1  UNL1       -0.0394
     15 C         146.9520  141.5914  155.3529 C.ar    1  UNL1        0.1260
     16 C         146.4996  141.6342  153.9233 C.ar    1  UNL1        0.1201
     17 N         147.5013  141.8382  152.8256 N.ar    1  UNL1       -0.2390
     18 C         148.9553  141.9994  153.1574 C.ar    1  UNL1        0.1195
     19 C         149.4075  141.9565  154.5870 C.ar    1  UNL1        0.1195
     20 N         148.4059  141.7525  155.6847 N.ar    1  UNL1       -0.2385
     21 C         139.7609  144.4775  164.8518 C.3     1  UNL1        0.0312
     22 C         140.4066  143.1537  164.5677 C.3     1  UNL1        0.1274
     23 C         139.7835  141.8897  165.0817 C.ar    1  UNL1        0.0038
     24 C         138.6839  141.2265  164.3066 C.ar    1  UNL1       -0.0025
     25 C         138.0609  139.9626  164.8206 C.ar    1  UNL1        0.0036
     26 C         138.5375  139.3618  166.1097 C.ar    1  UNL1        0.0714
     27 C         139.6372  140.0250  166.8848 C.ar    1  UNL1        0.0074
     28 C         140.2602  141.2889  166.3708 C.ar    1  UNL1        0.0692
     29 C         137.9145  138.0977  166.6237 C.3     1  UNL1        0.4186
     30 F         137.2914  136.8338  167.1377 F       1  UNL1       -0.1659
     31 F         138.4956  137.3407  165.4664 F       1  UNL1       -0.1659
     32 F         137.3334  138.8548  167.7809 F       1  UNL1       -0.1659
     33 C         141.3599  141.9522  167.1460 C.3     1  UNL1        0.4183
     34 F         142.4595  142.6154  167.9211 F       1  UNL1       -0.1659
     35 F         140.3437  142.7648  167.8923 F       1  UNL1       -0.1659
     36 F         142.3761  141.1396  166.3997 F       1  UNL1       -0.1659
@<TRIPOS>BOND
     1    22    21    1
     2    22    23    1
     3    23    24   ar
     4    24    25   ar
     5    25    26   ar
     6    26    29    1
     7    29    30    1
     8    29    31    1
     9    29    32    1
    10    26    27   ar
    11    27    28   ar
    12    28    33    1
    13    33    34    1
    14    33    35    1
    15    33    36    1
    16    22     1    1
    17     1     2   ar
    18     2     3   ar
    19     3     6    1
    20     6     7   am
    21     7     8    2
    22     7    10    1
    23    10    11   ar
    24    11    12   ar
    25    12    13   ar
    26    13    15    1
    27    15    16   ar
    28    16    17   ar
    29    17    18   ar
    30    18    19   ar
    31    19    20   ar
    32    13    14   ar
    33     3     4   ar
    34     4     5   ar
    35    28    23   ar
    36     5     1   ar
    37    14    10   ar
    38    20    15   ar
    39     6     9    1
@<TRIPOS>MOLECULE
*****
 36 39 0 0 0
SMALL
GASTEIGER

@<TRIPOS>ATOM
      1 N         141.8152  142.3158  162.5938 N.ar    1  UNL1       -0.2459
      2 C         142.0422  140.9733  161.9643 C.ar    1  UNL1        0.1116
      3 C         142.8779  141.1732  160.7348 C.ar    1  UNL1        0.0908
      4 C         143.1675  142.6392  160.6044 C.ar    1  UNL1        0.1363
      5 N         142.5106  143.3453  161.7533 N.ar    1  UNL1       -0.1661
      6 N         143.3426  140.0961  159.7999 N.am    1  UNL1       -0.2762
      7 C         142.5729  139.8091  158.5448 C.2     1  UNL1        0.2754
      8 O         141.3386  140.5991  158.2247 O.2     1  UNL1       -0.2675
      9 H         144.1527  139.5776  160.0100 H       1  UNL1        0.1553
     10 C         143.0375  138.7320  157.6099 C.ar    1  UNL1        0.1872
     11 N         144.0569  138.8892  156.5208 N.ar    1  UNL1       -0.1361
     12 N         144.2137  137.5629  155.8378 N.ar    1  UNL1       -0.1391
     13 C         143.2912  136.5861  156.5048 C.ar    1  UNL1        0.1529
     14 S         142.5643  137.3086  157.6001 S.2     1  UNL1       -0.0394
     15 C         143.1249  135.1405  156.1404 C.ar    1  UNL1        0.1260
     16 C         143.1719  134.0878  157.2080 C.ar    1  UNL1        0.1201
     17 N         143.0055  132.6423  156.8437 N.ar    1  UNL1       -0.2390
     18 C         142.7922  132.2494  155.4118 C.ar    1  UNL1        0.1195
     19 C         142.7452  133.3021  154.3443 C.ar    1  UNL1        0.1195
     20 N         142.9116  134.7477  154.7086 N.ar    1  UNL1       -0.2385
     21 C         140.9975  143.9627  164.4292 C.3     1  UNL1        0.0312
     22 C         141.0305  142.5820  163.8441 C.3     1  UNL1        0.1274
     23 C         140.2788  141.4673  164.5094 C.ar    1  UNL1        0.0038
     24 C         140.9860  140.5499  165.4624 C.ar    1  UNL1       -0.0025
     25 C         140.2343  139.4353  166.1277 C.ar    1  UNL1        0.0036
     26 C         138.7754  139.2381  165.8399 C.ar    1  UNL1        0.0714
     27 C         138.0683  140.1555  164.8869 C.ar    1  UNL1        0.0074
     28 C         138.8200  141.2701  164.2217 C.ar    1  UNL1        0.0692
     29 C         138.0238  138.1234  166.5052 C.3     1  UNL1        0.4186
     30 F         137.2721  137.0088  167.1704 F       1  UNL1       -0.1659
     31 F         137.5877  139.0643  167.5890 F       1  UNL1       -0.1659
     32 F         138.4598  137.1826  165.4214 F       1  UNL1       -0.1659
     33 C         138.1128  142.1875  163.2686 C.3     1  UNL1        0.4183
     34 F         137.4056  143.1050  162.3156 F       1  UNL1       -0.1659
     35 F         137.6680  143.0403  164.4196 F       1  UNL1       -0.1659
     36 F         138.5575  141.3347  162.1176 F       1  UNL1       -0.1659
@<TRIPOS>BOND
     1    22    21    1
     2    22    23    1
     3    23    24   ar
     4    24    25   ar
     5    25    26   ar
     6    26    29    1
     7    29    30    1
     8    29    31    1
     9    29    32    1
    10    26    27   ar
    11    27    28   ar
    12    28    33    1
    13    33    34    1
    14    33    35    1
    15    33    36    1
    16    22     1    1
    17     1     2   ar
    18     2     3   ar
    19     3     6    1
    20     6     7   am
    21     7     8    2
    22     7    10    1
    23    10    11   ar
    24    11    12   ar
    25    12    13   ar
    26    13    15    1
    27    15    16   ar
    28    16    17   ar
    29    17    18   ar
    30    18    19   ar
    31    19    20   ar
    32    13    14   ar
    33     3     4   ar
    34     4     5   ar
    35    28    23   ar
    36     5     1   ar
    37    14    10   ar
    38    20    15   ar
    39     6     9    1
@<TRIPOS>MOLECULE
*****
 36 39 0 0 0
SMALL
GASTEIGER

@<TRIPOS>ATOM
      1 N         140.7022  141.4065  163.5094 N.ar    1  UNL1       -0.2459
      2 C         140.7217  140.2909  162.5069 C.ar    1  UNL1        0.1116
      3 C         142.0157  140.3684  161.7522 C.ar    1  UNL1        0.0908
      4 C         142.7959  141.5320  162.2882 C.ar    1  UNL1        0.1363
      5 N         141.9842  142.1735  163.3742 N.ar    1  UNL1       -0.1661
      6 N         142.4526  139.4445  160.6542 N.am    1  UNL1       -0.2762
      7 C         142.4629  139.9218  159.2322 C.2     1  UNL1        0.2754
      8 O         142.0363  141.3229  158.9082 O.2     1  UNL1       -0.2675
      9 H         142.7326  138.5250  160.8669 H       1  UNL1        0.1553
     10 C         142.8998  138.9979  158.1342 C.ar    1  UNL1        0.1872
     11 N         143.8333  139.3421  157.0116 N.ar    1  UNL1       -0.1361
     12 N         143.9903  138.1245  156.1496 N.ar    1  UNL1       -0.1391
     13 C         143.1540  137.0279  156.7395 C.ar    1  UNL1        0.1529
     14 S         142.4800  137.5677  157.9661 S.2     1  UNL1       -0.0394
     15 C         143.0159  135.6359  156.1980 C.ar    1  UNL1        0.1260
     16 C         143.2042  134.4561  157.1051 C.ar    1  UNL1        0.1201
     17 N         143.0661  133.0641  156.5636 N.ar    1  UNL1       -0.2390
     18 C         142.7397  132.8519  155.1150 C.ar    1  UNL1        0.1195
     19 C         142.5515  134.0316  154.2079 C.ar    1  UNL1        0.1195
     20 N         142.6896  135.4236  154.7495 N.ar    1  UNL1       -0.2385
     21 C         138.2767  142.2125  163.9753 C.3     1  UNL1        0.0312
     22 C         139.5952  141.7031  164.4772 C.3     1  UNL1        0.1274
     23 C         139.8068  141.4902  165.9469 C.ar    1  UNL1        0.0038
     24 C         140.3128  142.6137  166.8023 C.ar    1  UNL1       -0.0025
     25 C         140.5243  142.4008  168.2719 C.ar    1  UNL1        0.0036
     26 C         140.2298  141.0644  168.8861 C.ar    1  UNL1        0.0714
     27 C         139.7238  139.9409  168.0308 C.ar    1  UNL1        0.0074
     28 C         139.5123  140.1538  166.5611 C.ar    1  UNL1        0.0692
     29 C         140.4414  140.8515  170.3559 C.3     1  UNL1        0.4186
     30 F         140.6529  140.6386  171.8255 F       1  UNL1       -0.1659
     31 F         140.9389  139.4629  170.0832 F       1  UNL1       -0.1659
     32 F         139.9438  142.2400  170.6286 F       1  UNL1       -0.1659
     33 C         139.0062  139.0303  165.7057 C.3     1  UNL1        0.4183
     34 F         138.5002  137.9069  164.8503 F       1  UNL1       -0.1659
     35 F         137.5954  139.4694  165.9637 F       1  UNL1       -0.1659
     36 F         140.4171  138.5912  165.4477 F       1  UNL1       -0.1659
@<TRIPOS>BOND
     1    22    21    1
     2    22    23    1
     3    23    24   ar
     4    24    25   ar
     5    25    26   ar
     6    26    29    1
     7    29    30    1
     8    29    31    1
     9    29    32    1
    10    26    27   ar
    11    27    28   ar
    12    28    33    1
    13    33    34    1
    14    33    35    1
    15    33    36    1
    16    22     1    1
    17     1     2   ar
    18     2     3   ar
    19     3     6    1
    20     6     7   am
    21     7     8    2
    22     7    10    1
    23    10    11   ar
    24    11    12   ar
    25    12    13   ar
    26    13    15    1
    27    15    16   ar
    28    16    17   ar
    29    17    18   ar
    30    18    19   ar
    31    19    20   ar
    32    13    14   ar
    33     3     4   ar
    34     4     5   ar
    35    28    23   ar
    36     5     1   ar
    37    14    10   ar
    38    20    15   ar
    39     6     9    1
@<TRIPOS>MOLECULE
*****
 36 39 0 0 0
SMALL
GASTEIGER

@<TRIPOS>ATOM
      1 N         142.9510  143.6033  162.1200 N.ar    1  UNL1       -0.2459
      2 C         143.4497  142.2806  161.6185 C.ar    1  UNL1        0.1116
      3 C         143.2419  142.2396  160.1335 C.ar    1  UNL1        0.0908
      4 C         142.6148  143.5371  159.7173 C.ar    1  UNL1        0.1363
      5 N         142.4350  144.3799  160.9450 N.ar    1  UNL1       -0.1661
      6 N         143.5987  141.1011  159.2244 N.am    1  UNL1       -0.2762
      7 C         142.5472  140.1152  158.8091 C.2     1  UNL1        0.2754
      8 O         141.1391  140.2679  159.3028 O.2     1  UNL1       -0.2675
      9 H         144.5229  141.0009  158.9003 H       1  UNL1        0.1553
     10 C         142.9040  138.9767  157.9000 C.ar    1  UNL1        0.1872
     11 N         143.8979  139.0228  156.7775 N.ar    1  UNL1       -0.1361
     12 N         143.9376  137.6667  156.1376 N.ar    1  UNL1       -0.1391
     13 C         142.9682  136.7825  156.8645 C.ar    1  UNL1        0.1529
     14 S         142.3294  137.5921  157.9538 S.2     1  UNL1       -0.0394
     15 C         142.6870  135.3417  156.5564 C.ar    1  UNL1        0.1260
     16 C         143.2491  134.2633  157.4347 C.ar    1  UNL1        0.1201
     17 N         142.9679  132.8225  157.1266 N.ar    1  UNL1       -0.2390
     18 C         142.1246  132.4600  155.9401 C.ar    1  UNL1        0.1195
     19 C         141.5627  133.5383  155.0618 C.ar    1  UNL1        0.1195
     20 N         141.8439  134.9792  155.3700 N.ar    1  UNL1       -0.2385
     21 C         143.6220  145.3682  163.9047 C.3     1  UNL1        0.0312
     22 C         142.9656  144.0680  163.5462 C.3     1  UNL1        0.1274
     23 C         142.3239  143.2323  164.6139 C.ar    1  UNL1        0.0038
     24 C         143.1770  142.4545  165.5716 C.ar    1  UNL1       -0.0025
     25 C         142.5353  141.6189  166.6392 C.ar    1  UNL1        0.0036
     26 C         141.0404  141.5611  166.7491 C.ar    1  UNL1        0.0714
     27 C         140.1873  142.3388  165.7914 C.ar    1  UNL1        0.0074
     28 C         140.8291  143.1745  164.7238 C.ar    1  UNL1        0.0692
     29 C         140.3987  140.7254  167.8168 C.3     1  UNL1        0.4186
     30 F         139.7570  139.8898  168.8845 F       1  UNL1       -0.1659
     31 F         140.8979  139.4815  167.1434 F       1  UNL1       -0.1659
     32 F         139.8995  141.9692  168.4903 F       1  UNL1       -0.1659
     33 C         139.9759  143.9523  163.7661 C.3     1  UNL1        0.4183
     34 F         139.1229  144.7301  162.8083 F       1  UNL1       -0.1659
     35 F         139.9531  142.7781  162.8329 F       1  UNL1       -0.1659
     36 F         139.9988  145.1265  164.6992 F       1  UNL1       -0.1659
@<TRIPOS>BOND
     1    22    21    1
     2    22    23    1
     3    23    24   ar
     4    24    25   ar
     5    25    26   ar
     6    26    29    1
     7    29    30    1
     8    29    31    1
     9    29    32    1
    10    26    27   ar
    11    27    28   ar
    12    28    33    1
    13    33    34    1
    14    33    35    1
    15    33    36    1
    16    22     1    1
    17     1     2   ar
    18     2     3   ar
    19     3     6    1
    20     6     7   am
    21     7     8    2
    22     7    10    1
    23    10    11   ar
    24    11    12   ar
    25    12    13   ar
    26    13    15    1
    27    15    16   ar
    28    16    17   ar
    29    17    18   ar
    30    18    19   ar
    31    19    20   ar
    32    13    14   ar
    33     3     4   ar
    34     4     5   ar
    35    28    23   ar
    36     5     1   ar
    37    14    10   ar
    38    20    15   ar
    39     6     9    1
@<TRIPOS>MOLECULE
*****
 36 39 0 0 0
SMALL
GASTEIGER

@<TRIPOS>ATOM
      1 N         142.9413  143.6435  161.6513 N.ar    1  UNL1       -0.2459
      2 C         143.4408  142.3086  161.1841 C.ar    1  UNL1        0.1116
      3 C         143.2284  142.2271  159.7015 C.ar    1  UNL1        0.0908
      4 C         142.5976  143.5118  159.2523 C.ar    1  UNL1        0.1363
      5 N         142.4202  144.3872  160.4574 N.ar    1  UNL1       -0.1661
      6 N         143.5843  141.0650  158.8223 N.am    1  UNL1       -0.2762
      7 C         142.6080  139.9423  158.6316 C.2     1  UNL1        0.2754
      8 O         141.2758  139.9817  159.3199 O.2     1  UNL1       -0.2675
      9 H         144.4586  141.0392  158.3705 H       1  UNL1        0.1553
     10 C         142.9639  138.7803  157.7524 C.ar    1  UNL1        0.1872
     11 N         143.8995  138.8153  156.5805 N.ar    1  UNL1       -0.1361
     12 N         143.9604  137.4357  155.9947 N.ar    1  UNL1       -0.1391
     13 C         143.0625  136.5481  156.8045 C.ar    1  UNL1        0.1529
     14 S         142.4465  137.3791  157.8909 S.2     1  UNL1       -0.0394
     15 C         142.8226  135.0862  156.5693 C.ar    1  UNL1        0.1260
     16 C         141.8114  134.6462  155.5524 C.ar    1  UNL1        0.1201
     17 N         141.5715  133.1843  155.3172 N.ar    1  UNL1       -0.2390
     18 C         142.3428  132.1624  156.0988 C.ar    1  UNL1        0.1195
     19 C         143.3539  132.6025  157.1156 C.ar    1  UNL1        0.1195
     20 N         143.5938  134.0643  157.3509 N.ar    1  UNL1       -0.2385
     21 C         143.7048  145.4035  163.4033 C.3     1  UNL1        0.0312
     22 C         142.9598  144.1466  163.0644 C.3     1  UNL1        0.1274
     23 C         142.2331  143.3926  164.1384 C.ar    1  UNL1        0.0038
     24 C         140.7779  143.6576  164.3874 C.ar    1  UNL1       -0.0025
     25 C         140.0513  142.9036  165.4614 C.ar    1  UNL1        0.0036
     26 C         140.7800  141.8846  166.2865 C.ar    1  UNL1        0.0714
     27 C         142.2352  141.6196  166.0375 C.ar    1  UNL1        0.0074
     28 C         142.9618  142.3736  164.9635 C.ar    1  UNL1        0.0692
     29 C         140.0533  141.1306  167.3605 C.3     1  UNL1        0.4186
     30 F         139.3267  140.3766  168.4345 F       1  UNL1       -0.1659
     31 F         140.3336  142.2407  168.3295 F       1  UNL1       -0.1659
     32 F         139.7731  140.0204  166.3915 F       1  UNL1       -0.1659
     33 C         144.4171  142.1086  164.7145 C.3     1  UNL1        0.4183
     34 F         145.8723  141.8436  164.4655 F       1  UNL1       -0.1659
     35 F         144.0578  140.9030  163.8976 F       1  UNL1       -0.1659
     36 F         144.7764  143.3142  165.5314 F       1  UNL1       -0.1659
@<TRIPOS>BOND
     1    22    21    1
     2    22    23    1
     3    23    24   ar
     4    24    25   ar
     5    25    26   ar
     6    26    29    1
     7    29    30    1
     8    29    31    1
     9    29    32    1
    10    26    27   ar
    11    27    28   ar
    12    28    33    1
    13    33    34    1
    14    33    35    1
    15    33    36    1
    16    22     1    1
    17     1     2   ar
    18     2     3   ar
    19     3     6    1
    20     6     7   am
    21     7     8    2
    22     7    10    1
    23    10    11   ar
    24    11    12   ar
    25    12    13   ar
    26    13    15    1
    27    15    16   ar
    28    16    17   ar
    29    17    18   ar
    30    18    19   ar
    31    19    20   ar
    32    13    14   ar
    33     3     4   ar
    34     4     5   ar
    35    28    23   ar
    36     5     1   ar
    37    14    10   ar
    38    20    15   ar
    39     6     9    1
@<TRIPOS>MOLECULE
*****
 36 39 0 0 0
SMALL
GASTEIGER

@<TRIPOS>ATOM
      1 N         138.8928  140.9249  164.6293 N.ar    1  UNL1       -0.2459
      2 C         139.5878  141.1742  163.3236 C.ar    1  UNL1        0.1116
      3 C         139.0135  142.4233  162.7237 C.ar    1  UNL1        0.0908
      4 C         137.9635  142.9461  163.6587 C.ar    1  UNL1        0.1363
      5 N         137.8889  142.0201  164.8364 N.ar    1  UNL1       -0.1661
      6 N         139.4182  143.0411  161.4182 N.am    1  UNL1       -0.2762
      7 C         140.7419  143.7359  161.2956 C.2     1  UNL1        0.2754
      8 O         141.6610  143.8128  162.4786 O.2     1  UNL1       -0.2675
      9 H         138.8150  142.9907  160.6417 H       1  UNL1        0.1553
     10 C         141.1466  144.3537  159.9900 C.ar    1  UNL1        0.1872
     11 N         142.5245  144.3396  159.3974 N.ar    1  UNL1       -0.1361
     12 N         142.4738  145.0713  158.0890 N.ar    1  UNL1       -0.1391
     13 C         141.0646  145.5376  157.8729 C.ar    1  UNL1        0.1529
     14 S         140.2443  145.0941  159.0478 S.2     1  UNL1       -0.0394
     15 C         140.5637  146.3115  156.6896 C.ar    1  UNL1        0.1260
     16 C         141.2054  146.1269  155.3464 C.ar    1  UNL1        0.1201
     17 N         140.7045  146.9009  154.1631 N.ar    1  UNL1       -0.2390
     18 C         139.5618  147.8594  154.3231 C.ar    1  UNL1        0.1195
     19 C         138.9201  148.0439  155.6663 C.ar    1  UNL1        0.1195
     20 N         139.4210  147.2700  156.8495 N.ar    1  UNL1       -0.2385
     21 C         138.0150  139.1208  166.2799 C.3     1  UNL1        0.0312
     22 C         139.1555  139.7814  165.5638 C.3     1  UNL1        0.1274
     23 C         140.5588  139.2984  165.7821 C.ar    1  UNL1        0.0038
     24 C         141.1457  138.2622  164.8701 C.ar    1  UNL1       -0.0025
     25 C         142.5489  137.7793  165.0884 C.ar    1  UNL1        0.0036
     26 C         143.3652  138.3325  166.2188 C.ar    1  UNL1        0.0714
     27 C         142.7782  139.3687  167.1308 C.ar    1  UNL1        0.0074
     28 C         141.3750  139.8516  166.9124 C.ar    1  UNL1        0.0692
     29 C         144.7685  137.8495  166.4371 C.3     1  UNL1        0.4186
     30 F         146.1717  137.3666  166.6554 F       1  UNL1       -0.1659
     31 F         144.2769  136.8941  167.4837 F       1  UNL1       -0.1659
     32 F         145.2601  138.8050  165.3905 F       1  UNL1       -0.1659
     33 C         140.7880  140.8878  167.8244 C.3     1  UNL1        0.4183
     34 F         140.2010  141.9240  168.7364 F       1  UNL1       -0.1659
     35 F         140.3039  139.8052  168.7428 F       1  UNL1       -0.1659
     36 F         141.2721  141.9705  166.9060 F       1  UNL1       -0.1659
@<TRIPOS>BOND
     1    22    21    1
     2    22    23    1
     3    23    24   ar
     4    24    25   ar
     5    25    26   ar
     6    26    29    1
     7    29    30    1
     8    29    31    1
     9    29    32    1
    10    26    27   ar
    11    27    28   ar
    12    28    33    1
    13    33    34    1
    14    33    35    1
    15    33    36    1
    16    22     1    1
    17     1     2   ar
    18     2     3   ar
    19     3     6    1
    20     6     7   am
    21     7     8    2
    22     7    10    1
    23    10    11   ar
    24    11    12   ar
    25    12    13   ar
    26    13    15    1
    27    15    16   ar
    28    16    17   ar
    29    17    18   ar
    30    18    19   ar
    31    19    20   ar
    32    13    14   ar
    33     3     4   ar
    34     4     5   ar
    35    28    23   ar
    36     5     1   ar
    37    14    10   ar
    38    20    15   ar
    39     6     9    1
@<TRIPOS>MOLECULE
*****
 36 39 0 0 0
SMALL
GASTEIGER

@<TRIPOS>ATOM
      1 N         141.2780  143.7036  161.2412 N.ar    1  UNL1       -0.2459
      2 C         141.2478  142.3304  160.6385 C.ar    1  UNL1        0.1116
      3 C         141.9155  142.3980  159.2970 C.ar    1  UNL1        0.0908
      4 C         142.3582  143.8132  159.0705 C.ar    1  UNL1        0.1363
      5 N         141.9642  144.6201  160.2720 N.ar    1  UNL1       -0.1661
      6 N         142.1067  141.2518  158.3485 N.am    1  UNL1       -0.2762
      7 C         143.0212  140.1205  158.7141 C.2     1  UNL1        0.2754
      8 O         143.7445  140.1353  160.0282 O.2     1  UNL1       -0.2675
      9 H         141.6320  141.2421  157.4861 H       1  UNL1        0.1553
     10 C         143.2125  138.9743  157.7657 C.ar    1  UNL1        0.1872
     11 N         144.0425  138.9927  156.5164 N.ar    1  UNL1       -0.1361
     12 N         143.9503  137.6381  155.8786 N.ar    1  UNL1       -0.1391
     13 C         143.0633  136.7825  156.7338 C.ar    1  UNL1        0.1529
     14 S         142.6073  137.6083  157.9001 S.2     1  UNL1       -0.0394
     15 C         142.6967  135.3523  156.4691 C.ar    1  UNL1        0.1260
     16 C         143.2369  134.2644  157.3494 C.ar    1  UNL1        0.1201
     17 N         142.8703  132.8342  157.0847 N.ar    1  UNL1       -0.2390
     18 C         141.9636  132.4918  155.9398 C.ar    1  UNL1        0.1195
     19 C         141.4235  133.5797  155.0596 C.ar    1  UNL1        0.1195
     20 N         141.7901  135.0099  155.3243 N.ar    1  UNL1       -0.2385
     21 C         139.6836  145.1726  162.6730 C.3     1  UNL1        0.0312
     22 C         140.7198  144.0923  162.5781 C.3     1  UNL1        0.1274
     23 C         141.1980  143.4005  163.8203 C.ar    1  UNL1        0.0038
     24 C         140.2737  142.4928  164.5763 C.ar    1  UNL1       -0.0025
     25 C         140.7519  141.8011  165.8184 C.ar    1  UNL1        0.0036
     26 C         142.1544  142.0170  166.3044 C.ar    1  UNL1        0.0714
     27 C         143.0788  142.9247  165.5484 C.ar    1  UNL1        0.0074
     28 C         142.6006  143.6164  164.3063 C.ar    1  UNL1        0.0692
     29 C         142.6326  141.3253  167.5466 C.3     1  UNL1        0.4186
     30 F         143.1108  140.6335  168.7887 F       1  UNL1       -0.1659
     31 F         141.7169  140.1730  167.2574 F       1  UNL1       -0.1659
     32 F         143.5483  142.4775  167.8357 F       1  UNL1       -0.1659
     33 C         143.5249  144.5242  163.5502 C.3     1  UNL1        0.4183
     34 F         144.4492  145.4319  162.7942 F       1  UNL1       -0.1659
     35 F         142.9988  145.7000  164.3187 F       1  UNL1       -0.1659
     36 F         144.0510  143.3484  162.7817 F       1  UNL1       -0.1659
@<TRIPOS>BOND
     1    22    21    1
     2    22    23    1
     3    23    24   ar
     4    24    25   ar
     5    25    26   ar
     6    26    29    1
     7    29    30    1
     8    29    31    1
     9    29    32    1
    10    26    27   ar
    11    27    28   ar
    12    28    33    1
    13    33    34    1
    14    33    35    1
    15    33    36    1
    16    22     1    1
    17     1     2   ar
    18     2     3   ar
    19     3     6    1
    20     6     7   am
    21     7     8    2
    22     7    10    1
    23    10    11   ar
    24    11    12   ar
    25    12    13   ar
    26    13    15    1
    27    15    16   ar
    28    16    17   ar
    29    17    18   ar
    30    18    19   ar
    31    19    20   ar
    32    13    14   ar
    33     3     4   ar
    34     4     5   ar
    35    28    23   ar
    36     5     1   ar
    37    14    10   ar
    38    20    15   ar
    39     6     9    1
@<TRIPOS>MOLECULE
*****
 36 39 0 0 0
SMALL
GASTEIGER

@<TRIPOS>ATOM
      1 N         140.4951  139.9210  163.9004 N.ar    1  UNL1       -0.2459
      2 C         140.3509  139.4772  162.4748 C.ar    1  UNL1        0.1116
      3 C         141.6601  138.8901  162.0373 C.ar    1  UNL1        0.0908
      4 C         142.6135  138.9711  163.1926 C.ar    1  UNL1        0.1363
      5 N         141.8935  139.6082  164.3439 N.ar    1  UNL1       -0.1661
      6 N         141.9627  138.3218  160.6826 N.am    1  UNL1       -0.2762
      7 C         142.7060  139.1453  159.6729 C.2     1  UNL1        0.2754
      8 O         143.1466  140.5370  160.0180 O.2     1  UNL1       -0.2675
      9 H         141.6735  137.4084  160.4561 H       1  UNL1        0.1553
     10 C         143.0086  138.5770  158.3181 C.ar    1  UNL1        0.1872
     11 N         143.8099  139.2454  157.2405 N.ar    1  UNL1       -0.1361
     12 N         143.8596  138.3220  156.0595 N.ar    1  UNL1       -0.1391
     13 C         143.0890  137.0829  156.4071 C.ar    1  UNL1        0.1529
     14 S         142.5630  137.2405  157.8030 S.2     1  UNL1       -0.0394
     15 C         142.8809  135.8948  155.5154 C.ar    1  UNL1        0.1260
     16 C         142.3241  136.0814  154.1350 C.ar    1  UNL1        0.1201
     17 N         142.1160  134.8934  153.2433 N.ar    1  UNL1       -0.2390
     18 C         142.4646  133.5186  153.7319 C.ar    1  UNL1        0.1195
     19 C         143.0214  133.3321  155.1122 C.ar    1  UNL1        0.1195
     20 N         143.2295  134.5201  156.0039 N.ar    1  UNL1       -0.2385
     21 C         138.1023  140.9079  164.1244 C.3     1  UNL1        0.0312
     22 C         139.4283  140.5647  164.7356 C.3     1  UNL1        0.1274
     23 C         139.6877  140.8651  166.1822 C.ar    1  UNL1        0.0038
     24 C         139.3730  139.8385  167.2296 C.ar    1  UNL1       -0.0025
     25 C         139.6323  140.1390  168.6761 C.ar    1  UNL1        0.0036
     26 C         140.2064  141.4660  169.0752 C.ar    1  UNL1        0.0714
     27 C         140.5212  142.4926  168.0279 C.ar    1  UNL1        0.0074
     28 C         140.2618  142.1922  166.5814 C.ar    1  UNL1        0.0692
     29 C         140.4658  141.7664  170.5218 C.3     1  UNL1        0.4186
     30 F         140.7251  142.0669  171.9683 F       1  UNL1       -0.1659
     31 F         141.7252  140.9537  170.4649 F       1  UNL1       -0.1659
     32 F         139.2064  142.5792  170.5788 F       1  UNL1       -0.1659
     33 C         140.5766  143.2188  165.5340 C.3     1  UNL1        0.4183
     34 F         140.8913  144.2453  164.4866 F       1  UNL1       -0.1659
     35 F         141.9742  142.6843  165.4302 F       1  UNL1       -0.1659
     36 F         139.1789  143.7533  165.6377 F       1  UNL1       -0.1659
@<TRIPOS>BOND
     1    22    21    1
     2    22    23    1
     3    23    24   ar
     4    24    25   ar
     5    25    26   ar
     6    26    29    1
     7    29    30    1
     8    29    31    1
     9    29    32    1
    10    26    27   ar
    11    27    28   ar
    12    28    33    1
    13    33    34    1
    14    33    35    1
    15    33    36    1
    16    22     1    1
    17     1     2   ar
    18     2     3   ar
    19     3     6    1
    20     6     7   am
    21     7     8    2
    22     7    10    1
    23    10    11   ar
    24    11    12   ar
    25    12    13   ar
    26    13    15    1
    27    15    16   ar
    28    16    17   ar
    29    17    18   ar
    30    18    19   ar
    31    19    20   ar
    32    13    14   ar
    33     3     4   ar
    34     4     5   ar
    35    28    23   ar
    36     5     1   ar
    37    14    10   ar
    38    20    15   ar
    39     6     9    1
