@<TRIPOS>MOLECULE
*****
 30 34 0 0 0
SMALL
GASTEIGER

@<TRIPOS>ATOM
      1 N         140.1734  144.6575  161.7578 N.3     1  UNL1       -0.2689
      2 C         140.9866  144.9356  162.9871 C.3     1  UNL1        0.0724
      3 C         140.8475  144.0550  164.1934 C.3     1  UNL1        0.0175
      4 C         139.8952  142.8963  164.1703 C.3     1  UNL1        0.0060
      5 C         139.0820  142.6181  162.9410 C.3     1  UNL1        0.0175
      6 C         139.2211  143.4987  161.7347 C.3     1  UNL1        0.0724
      7 C         140.7084  143.1744  165.3998 C.3     1  UNL1        0.0217
      8 C         140.5693  142.2938  166.6060 C.3     1  UNL1        0.0937
      9 N         139.6170  141.1350  166.5830 N.am    1  UNL1       -0.2761
     10 C         139.4780  140.2544  167.7893 C.2     1  UNL1        0.2491
     11 O         138.5257  139.0957  167.7663 O.2     1  UNL1       -0.2699
     12 C         138.8039  140.8569  165.3536 C.3     1  UNL1        0.0937
     13 C         138.9430  141.7375  164.1472 C.3     1  UNL1        0.0217
     14 C         140.2911  140.5326  169.0187 C.ar    1  UNL1        0.0567
     15 C         141.5958  139.8237  169.2312 C.ar    1  UNL1        0.0252
     16 C         142.4090  140.1018  170.4605 C.ar    1  UNL1        0.0990
     17 N         141.9174  141.0889  171.4775 N.ar    1  UNL1       -0.2423
     18 C         140.6127  141.7978  171.2650 C.ar    1  UNL1        0.0990
     19 C         139.7995  141.5196  170.0356 C.ar    1  UNL1        0.0252
     20 C         140.3125  145.5381  160.5514 C.3     1  UNL1        0.1022
     21 C         139.0859  147.6961  155.1734 C.3     1  UNL1        0.0476
     22 C         139.8858  146.7744  156.0457 C.3     1  UNL1        0.1704
     23 C         140.9614  145.8362  155.5842 C.3     1  UNL1        0.0729
     24 C         141.4908  145.1111  156.7859 C.ar    1  UNL1        0.0151
     25 C         142.5577  144.0679  156.9392 C.ar    1  UNL1       -0.0012
     26 C         142.8761  143.5148  158.2966 C.ar    1  UNL1       -0.0004
     27 C         142.1277  144.0048  159.5007 C.ar    1  UNL1        0.0001
     28 C         141.0609  145.0480  159.3474 C.ar    1  UNL1        0.0275
     29 C         140.7424  145.6012  157.9899 C.ar    1  UNL1        0.1317
     30 O         139.7505  146.6291  157.5325 O.3     1  UNL1       -0.4794
@<TRIPOS>BOND
     1    21    22    1
     2    22    23    1
     3    23    24    1
     4    24    25   ar
     5    25    26   ar
     6    26    27   ar
     7    27    28   ar
     8    28    20    1
     9    20     1    1
    10     1     2    1
    11     2     3    1
    12     3     4    1
    13     4     5    1
    14     5     6    1
    15     4     7    1
    16     7     8    1
    17     8     9    1
    18     9    10   am
    19    10    11    2
    20    10    14    1
    21    14    15   ar
    22    15    16   ar
    23    16    17   ar
    24    17    18   ar
    25    18    19   ar
    26     9    12    1
    27    12    13    1
    28    28    29   ar
    29    29    30    1
    30    30    22    1
    31    29    24   ar
    32     6     1    1
    33    19    14   ar
    34    13     4    1
@<TRIPOS>MOLECULE
*****
 30 34 0 0 0
SMALL
GASTEIGER

@<TRIPOS>ATOM
      1 N         140.0145  144.8456  161.8745 N.3     1  UNL1       -0.2689
      2 C         140.8157  145.1211  163.1123 C.3     1  UNL1        0.0724
      3 C         140.7100  144.2031  164.2939 C.3     1  UNL1        0.0175
      4 C         139.8031  143.0096  164.2376 C.3     1  UNL1        0.0060
      5 C         139.0019  142.7341  162.9999 C.3     1  UNL1        0.0175
      6 C         139.1076  143.6521  161.8183 C.3     1  UNL1        0.0724
      7 C         140.6043  143.2851  165.4755 C.3     1  UNL1        0.0217
      8 C         140.4986  142.3672  166.6571 C.3     1  UNL1        0.0937
      9 N         139.5917  141.1737  166.6008 N.am    1  UNL1       -0.2761
     10 C         139.4860  140.2557  167.7825 C.2     1  UNL1        0.2491
     11 O         138.5791  139.0622  167.7263 O.2     1  UNL1       -0.2699
     12 C         138.7905  140.8982  165.3631 C.3     1  UNL1        0.0937
     13 C         138.8962  141.8162  164.1814 C.3     1  UNL1        0.0217
     14 C         140.2872  140.5312  169.0203 C.ar    1  UNL1        0.0567
     15 C         139.7794  141.5062  170.0408 C.ar    1  UNL1        0.0252
     16 C         140.5806  141.7817  171.2786 C.ar    1  UNL1        0.0990
     17 N         141.8896  141.0822  171.4959 N.ar    1  UNL1       -0.2423
     18 C         142.3974  140.1072  170.4754 C.ar    1  UNL1        0.0990
     19 C         141.5961  139.8317  169.2375 C.ar    1  UNL1        0.0252
     20 C         140.1202  145.7636  160.6929 C.3     1  UNL1        0.1022
     21 C         144.8210  142.1665  160.9113 C.3     1  UNL1        0.0476
     22 C         143.8228  142.9428  160.1044 C.3     1  UNL1        0.1704
     23 C         143.7627  143.0132  158.6073 C.3     1  UNL1        0.0729
     24 C         142.6122  143.8989  158.2307 C.ar    1  UNL1        0.0151
     25 C         142.0733  144.3328  156.8997 C.ar    1  UNL1       -0.0012
     26 C         140.8833  145.2435  156.8332 C.ar    1  UNL1       -0.0004
     27 C         140.2322  145.7205  158.0976 C.ar    1  UNL1        0.0001
     28 C         140.7712  145.2866  159.4285 C.ar    1  UNL1        0.0275
     29 C         141.9612  144.3758  159.4950 C.ar    1  UNL1        0.1317
     30 O         142.7093  143.7850  160.6531 O.3     1  UNL1       -0.4794
@<TRIPOS>BOND
     1    21    22    1
     2    22    23    1
     3    23    24    1
     4    24    25   ar
     5    25    26   ar
     6    26    27   ar
     7    27    28   ar
     8    28    20    1
     9    20     1    1
    10     1     2    1
    11     2     3    1
    12     3     4    1
    13     4     5    1
    14     5     6    1
    15     4     7    1
    16     7     8    1
    17     8     9    1
    18     9    10   am
    19    10    11    2
    20    10    14    1
    21    14    15   ar
    22    15    16   ar
    23    16    17   ar
    24    17    18   ar
    25    18    19   ar
    26     9    12    1
    27    12    13    1
    28    28    29   ar
    29    29    30    1
    30    30    22    1
    31    29    24   ar
    32     6     1    1
    33    19    14   ar
    34    13     4    1
@<TRIPOS>MOLECULE
*****
 30 34 0 0 0
SMALL
GASTEIGER

@<TRIPOS>ATOM
      1 N         139.2937  139.5119  160.9101 N.3     1  UNL1       -0.2689
      2 C         140.2738  140.4821  161.4999 C.3     1  UNL1        0.0724
      3 C         140.3621  140.6477  162.9881 C.3     1  UNL1        0.0175
      4 C         139.4702  139.8430  163.8865 C.3     1  UNL1        0.0060
      5 C         138.4901  138.8728  163.2966 C.3     1  UNL1        0.0175
      6 C         138.4018  138.7072  161.8085 C.3     1  UNL1        0.0724
      7 C         140.4504  140.8133  164.4763 C.3     1  UNL1        0.0217
      8 C         140.5386  140.9789  165.9645 C.3     1  UNL1        0.0937
      9 N         139.6467  140.1743  166.8629 N.am    1  UNL1       -0.2761
     10 C         139.7350  140.3399  168.3512 C.2     1  UNL1        0.2491
     11 O         138.8431  139.5352  169.2495 O.2     1  UNL1       -0.2699
     12 C         138.6666  139.2040  166.2731 C.3     1  UNL1        0.0937
     13 C         138.5783  139.0384  164.7848 C.3     1  UNL1        0.0217
     14 C         140.7151  141.3101  168.9410 C.ar    1  UNL1        0.0567
     15 C         140.2616  142.6812  169.3467 C.ar    1  UNL1        0.0252
     16 C         141.2417  143.6514  169.9365 C.ar    1  UNL1        0.0990
     17 N         142.6755  143.2507  170.1206 N.ar    1  UNL1       -0.2423
     18 C         143.1290  141.8796  169.7149 C.ar    1  UNL1        0.0990
     19 C         142.1488  140.9094  169.1251 C.ar    1  UNL1        0.0252
     20 C         139.2054  139.3463  159.4218 C.3     1  UNL1        0.1022
     21 C         138.1815  137.2586  153.9741 C.3     1  UNL1        0.0476
     22 C         139.1071  137.4248  155.1427 C.3     1  UNL1        0.1704
     23 C         140.5118  136.9070  155.2354 C.3     1  UNL1        0.0729
     24 C         141.0634  137.3002  156.5738 C.ar    1  UNL1        0.0151
     25 C         142.3969  137.0637  157.2186 C.ar    1  UNL1       -0.0012
     26 C         142.6666  137.5881  158.5978 C.ar    1  UNL1       -0.0004
     27 C         141.6028  138.3490  159.3323 C.ar    1  UNL1        0.0001
     28 C         140.2692  138.5854  158.6874 C.ar    1  UNL1        0.0275
     29 C         139.9996  138.0610  157.3082 C.ar    1  UNL1        0.1317
     30 O         138.7905  138.1381  156.4238 O.3     1  UNL1       -0.4794
@<TRIPOS>BOND
     1    21    22    1
     2    22    23    1
     3    23    24    1
     4    24    25   ar
     5    25    26   ar
     6    26    27   ar
     7    27    28   ar
     8    28    20    1
     9    20     1    1
    10     1     2    1
    11     2     3    1
    12     3     4    1
    13     4     5    1
    14     5     6    1
    15     4     7    1
    16     7     8    1
    17     8     9    1
    18     9    10   am
    19    10    11    2
    20    10    14    1
    21    14    15   ar
    22    15    16   ar
    23    16    17   ar
    24    17    18   ar
    25    18    19   ar
    26     9    12    1
    27    12    13    1
    28    28    29   ar
    29    29    30    1
    30    30    22    1
    31    29    24   ar
    32     6     1    1
    33    19    14   ar
    34    13     4    1
@<TRIPOS>MOLECULE
*****
 30 34 0 0 0
SMALL
GASTEIGER

@<TRIPOS>ATOM
      1 N         143.0490  139.8665  160.7733 N.3     1  UNL1       -0.2689
      2 C         142.6904  141.1285  161.5004 C.3     1  UNL1        0.0724
      3 C         142.6147  141.1353  162.9984 C.3     1  UNL1        0.0175
      4 C         142.8976  139.8800  163.7694 C.3     1  UNL1        0.0060
      5 C         143.2561  138.6180  163.0424 C.3     1  UNL1        0.0175
      6 C         143.3319  138.6112  161.5443 C.3     1  UNL1        0.0724
      7 C         142.5389  141.1421  164.4966 C.3     1  UNL1        0.0217
      8 C         142.4632  141.1489  165.9946 C.3     1  UNL1        0.0937
      9 N         142.7461  139.8937  166.7656 N.am    1  UNL1       -0.2761
     10 C         142.6703  139.9005  168.2637 C.2     1  UNL1        0.2491
     11 O         142.9531  138.6453  169.0347 O.2     1  UNL1       -0.2699
     12 C         143.1046  138.6316  166.0385 C.3     1  UNL1        0.0937
     13 C         143.1804  138.6248  164.5404 C.3     1  UNL1        0.0217
     14 C         142.3117  141.1625  168.9908 C.ar    1  UNL1        0.0567
     15 C         143.3654  141.9199  169.7432 C.ar    1  UNL1        0.0252
     16 C         143.0068  143.1819  170.4703 C.ar    1  UNL1        0.0990
     17 N         141.5945  143.6866  170.4449 N.ar    1  UNL1       -0.2423
     18 C         140.5408  142.9293  169.6925 C.ar    1  UNL1        0.0990
     19 C         140.8994  141.6672  168.9654 C.ar    1  UNL1        0.0252
     20 C         143.1248  139.8596  159.2752 C.3     1  UNL1        0.1022
     21 C         143.6563  134.8369  156.1810 C.3     1  UNL1        0.0476
     22 C         142.8233  136.0062  156.6158 C.3     1  UNL1        0.1704
     23 C         141.4015  136.2721  156.2186 C.3     1  UNL1        0.0729
     24 C         140.9654  137.5451  156.8815 C.ar    1  UNL1        0.0151
     25 C         139.6680  138.2973  156.8546 C.ar    1  UNL1       -0.0012
     26 C         139.5228  139.5702  157.6346 C.ar    1  UNL1       -0.0004
     27 C         140.6751  140.0911  158.4415 C.ar    1  UNL1        0.0001
     28 C         141.9725  139.3389  158.4684 C.ar    1  UNL1        0.0275
     29 C         142.1177  138.0658  157.6883 C.ar    1  UNL1        0.1317
     30 O         143.2659  137.1148  157.5242 O.3     1  UNL1       -0.4794
@<TRIPOS>BOND
     1    21    22    1
     2    22    23    1
     3    23    24    1
     4    24    25   ar
     5    25    26   ar
     6    26    27   ar
     7    27    28   ar
     8    28    20    1
     9    20     1    1
    10     1     2    1
    11     2     3    1
    12     3     4    1
    13     4     5    1
    14     5     6    1
    15     4     7    1
    16     7     8    1
    17     8     9    1
    18     9    10   am
    19    10    11    2
    20    10    14    1
    21    14    15   ar
    22    15    16   ar
    23    16    17   ar
    24    17    18   ar
    25    18    19   ar
    26     9    12    1
    27    12    13    1
    28    28    29   ar
    29    29    30    1
    30    30    22    1
    31    29    24   ar
    32     6     1    1
    33    19    14   ar
    34    13     4    1
@<TRIPOS>MOLECULE
*****
 30 34 0 0 0
SMALL
GASTEIGER

@<TRIPOS>ATOM
      1 N         142.2069  137.8730  157.6654 N.3     1  UNL1       -0.2689
      2 C         142.6639  137.6972  159.0832 C.3     1  UNL1        0.0724
      3 C         141.8580  138.2760  160.2081 C.3     1  UNL1        0.0175
      4 C         140.5951  139.0305  159.9152 C.3     1  UNL1        0.0060
      5 C         140.1381  139.2062  158.4974 C.3     1  UNL1        0.0175
      6 C         140.9439  138.6275  157.3725 C.3     1  UNL1        0.0724
      7 C         141.0521  138.8548  161.3331 C.3     1  UNL1        0.0217
      8 C         140.2463  139.4336  162.4581 C.3     1  UNL1        0.0937
      9 N         138.9833  140.1881  162.1652 N.am    1  UNL1       -0.2761
     10 C         138.1774  140.7669  163.2902 C.2     1  UNL1        0.2491
     11 O         136.9145  141.5214  162.9974 O.2     1  UNL1       -0.2699
     12 C         138.5263  140.3638  160.7474 C.3     1  UNL1        0.0937
     13 C         139.3322  139.7850  159.6224 C.3     1  UNL1        0.0217
     14 C         138.6345  140.5912  164.7080 C.ar    1  UNL1        0.0567
     15 C         139.5429  141.6072  165.3346 C.ar    1  UNL1        0.0252
     16 C         139.9999  141.4314  166.7524 C.ar    1  UNL1        0.0990
     17 N         139.5486  140.2397  167.5437 N.ar    1  UNL1       -0.2423
     18 C         138.6402  139.2237  166.9171 C.ar    1  UNL1        0.0990
     19 C         138.1831  139.3995  165.4992 C.ar    1  UNL1        0.0252
     20 C         143.0128  137.2942  156.5403 C.3     1  UNL1        0.1022
     21 C         145.2100  132.0016  158.0386 C.3     1  UNL1        0.0476
     22 C         144.2889  132.8262  157.1891 C.3     1  UNL1        0.1704
     23 C         143.3678  132.3057  156.1258 C.3     1  UNL1        0.0729
     24 C         142.6368  133.4739  155.5333 C.ar    1  UNL1        0.0151
     25 C         141.6045  133.5668  154.4491 C.ar    1  UNL1       -0.0012
     26 C         141.0415  134.9021  154.0619 C.ar    1  UNL1       -0.0004
     27 C         141.5109  136.1447  154.7590 C.ar    1  UNL1        0.0001
     28 C         142.5433  136.0517  155.8433 C.ar    1  UNL1        0.0275
     29 C         143.1063  134.7163  156.2304 C.ar    1  UNL1        0.1317
     30 O         144.1273  134.3161  157.2537 O.3     1  UNL1       -0.4794
@<TRIPOS>BOND
     1    21    22    1
     2    22    23    1
     3    23    24    1
     4    24    25   ar
     5    25    26   ar
     6    26    27   ar
     7    27    28   ar
     8    28    20    1
     9    20     1    1
    10     1     2    1
    11     2     3    1
    12     3     4    1
    13     4     5    1
    14     5     6    1
    15     4     7    1
    16     7     8    1
    17     8     9    1
    18     9    10   am
    19    10    11    2
    20    10    14    1
    21    14    15   ar
    22    15    16   ar
    23    16    17   ar
    24    17    18   ar
    25    18    19   ar
    26     9    12    1
    27    12    13    1
    28    28    29   ar
    29    29    30    1
    30    30    22    1
    31    29    24   ar
    32     6     1    1
    33    19    14   ar
    34    13     4    1
@<TRIPOS>MOLECULE
*****
 30 34 0 0 0
SMALL
GASTEIGER

@<TRIPOS>ATOM
      1 N         139.0011  141.6211  160.3086 N.3     1  UNL1       -0.2689
      2 C         138.5352  140.2626  159.8758 C.3     1  UNL1        0.0724
      3 C         139.4325  139.3904  159.0487 C.3     1  UNL1        0.0175
      4 C         140.7955  139.8768  158.6543 C.3     1  UNL1        0.0060
      5 C         141.2614  141.2353  159.0871 C.3     1  UNL1        0.0175
      6 C         140.3641  142.1075  159.9143 C.3     1  UNL1        0.0724
      7 C         140.3297  138.5182  158.2215 C.3     1  UNL1        0.0217
      8 C         141.2269  137.6460  157.3944 C.3     1  UNL1        0.0937
      9 N         142.5900  138.1323  157.0000 N.am    1  UNL1       -0.2761
     10 C         143.4873  137.2600  156.1728 C.2     1  UNL1        0.2491
     11 O         144.8503  137.7464  155.7785 O.2     1  UNL1       -0.2699
     12 C         143.0559  139.4908  157.4328 C.3     1  UNL1        0.0937
     13 C         142.1586  140.3631  158.2600 C.3     1  UNL1        0.0217
     14 C         143.0214  135.9015  155.7400 C.ar    1  UNL1        0.0567
     15 C         142.3880  135.7199  154.3925 C.ar    1  UNL1        0.0252
     16 C         141.9222  134.3613  153.9597 C.ar    1  UNL1        0.0990
     17 N         142.0897  133.1843  154.8745 N.ar    1  UNL1       -0.2423
     18 C         142.7231  133.3660  156.2220 C.ar    1  UNL1        0.0990
     19 C         143.1890  134.7246  156.6548 C.ar    1  UNL1        0.0252
     20 C         138.1038  142.4934  161.1358 C.3     1  UNL1        0.1022
     21 C         138.7715  138.2774  165.2424 C.3     1  UNL1        0.0476
     22 C         138.8045  139.7276  164.8603 C.3     1  UNL1        0.1704
     23 C         139.1395  140.8718  165.7705 C.3     1  UNL1        0.0729
     24 C         139.0504  142.1395  164.9736 C.ar    1  UNL1        0.0151
     25 C         139.2740  143.5757  165.3440 C.ar    1  UNL1       -0.0012
     26 C         139.1076  144.6512  164.3118 C.ar    1  UNL1       -0.0004
     27 C         138.7175  144.2904  162.9090 C.ar    1  UNL1        0.0001
     28 C         138.4939  142.8542  162.5385 C.ar    1  UNL1        0.0275
     29 C         138.6603  141.7787  163.5709 C.ar    1  UNL1        0.1317
     30 O         138.5084  140.2881  163.5008 O.3     1  UNL1       -0.4794
@<TRIPOS>BOND
     1    21    22    1
     2    22    23    1
     3    23    24    1
     4    24    25   ar
     5    25    26   ar
     6    26    27   ar
     7    27    28   ar
     8    28    20    1
     9    20     1    1
    10     1     2    1
    11     2     3    1
    12     3     4    1
    13     4     5    1
    14     5     6    1
    15     4     7    1
    16     7     8    1
    17     8     9    1
    18     9    10   am
    19    10    11    2
    20    10    14    1
    21    14    15   ar
    22    15    16   ar
    23    16    17   ar
    24    17    18   ar
    25    18    19   ar
    26     9    12    1
    27    12    13    1
    28    28    29   ar
    29    29    30    1
    30    30    22    1
    31    29    24   ar
    32     6     1    1
    33    19    14   ar
    34    13     4    1
@<TRIPOS>MOLECULE
*****
 30 34 0 0 0
SMALL
GASTEIGER

@<TRIPOS>ATOM
      1 N         143.7518  141.8973  161.0991 N.3     1  UNL1       -0.2689
      2 C         142.7972  142.6475  161.9799 C.3     1  UNL1        0.0724
      3 C         142.5579  142.1893  163.3879 C.3     1  UNL1        0.0175
      4 C         143.2731  140.9808  163.9152 C.3     1  UNL1        0.0060
      5 C         144.2276  140.2305  163.0343 C.3     1  UNL1        0.0175
      6 C         144.4670  140.6888  161.6263 C.3     1  UNL1        0.0724
      7 C         142.3185  141.7310  164.7961 C.3     1  UNL1        0.0217
      8 C         142.0791  141.2728  166.2041 C.3     1  UNL1        0.0937
      9 N         142.7943  140.0643  166.7314 N.am    1  UNL1       -0.2761
     10 C         142.5549  139.6060  168.1395 C.2     1  UNL1        0.2491
     11 O         143.2701  138.3975  168.6667 O.2     1  UNL1       -0.2699
     12 C         143.7489  139.3140  165.8505 C.3     1  UNL1        0.0937
     13 C         143.9883  139.7723  164.4424 C.3     1  UNL1        0.0217
     14 C         141.6004  140.3563  169.0203 C.ar    1  UNL1        0.0567
     15 C         142.1071  141.4447  169.9196 C.ar    1  UNL1        0.0252
     16 C         141.1525  142.1949  170.8004 C.ar    1  UNL1        0.0990
     17 N         139.6912  141.8568  170.7820 N.ar    1  UNL1       -0.2423
     18 C         139.1845  140.7685  169.8827 C.ar    1  UNL1        0.0990
     19 C         140.1391  140.0182  169.0018 C.ar    1  UNL1        0.0252
     20 C         143.9912  142.3555  159.6909 C.3     1  UNL1        0.1022
     21 C         148.0398  142.2298  155.3692 C.3     1  UNL1        0.0476
     22 C         146.7730  141.6973  155.9706 C.3     1  UNL1        0.1704
     23 C         145.9214  140.6000  155.4044 C.3     1  UNL1        0.0729
     24 C         144.7576  140.3931  156.3277 C.ar    1  UNL1        0.0151
     25 C         143.5944  139.4472  156.2801 C.ar    1  UNL1       -0.0012
     26 C         142.5635  139.4707  157.3694 C.ar    1  UNL1       -0.0004
     27 C         142.6957  140.4402  158.5064 C.ar    1  UNL1        0.0001
     28 C         143.8589  141.3861  158.5540 C.ar    1  UNL1        0.0275
     29 C         144.8898  141.3625  157.4646 C.ar    1  UNL1        0.1317
     30 O         146.1354  142.1686  157.2440 O.3     1  UNL1       -0.4794
@<TRIPOS>BOND
     1    21    22    1
     2    22    23    1
     3    23    24    1
     4    24    25   ar
     5    25    26   ar
     6    26    27   ar
     7    27    28   ar
     8    28    20    1
     9    20     1    1
    10     1     2    1
    11     2     3    1
    12     3     4    1
    13     4     5    1
    14     5     6    1
    15     4     7    1
    16     7     8    1
    17     8     9    1
    18     9    10   am
    19    10    11    2
    20    10    14    1
    21    14    15   ar
    22    15    16   ar
    23    16    17   ar
    24    17    18   ar
    25    18    19   ar
    26     9    12    1
    27    12    13    1
    28    28    29   ar
    29    29    30    1
    30    30    22    1
    31    29    24   ar
    32     6     1    1
    33    19    14   ar
    34    13     4    1
@<TRIPOS>MOLECULE
*****
 30 34 0 0 0
SMALL
GASTEIGER

@<TRIPOS>ATOM
      1 N         142.9551  141.6083  166.0487 N.3     1  UNL1       -0.2689
      2 C         143.6546  140.6774  165.1032 C.3     1  UNL1        0.0724
      3 C         143.7349  141.0122  163.6433 C.3     1  UNL1        0.0175
      4 C         143.1157  142.2779  163.1288 C.3     1  UNL1        0.0060
      5 C         142.4162  143.2088  164.0744 C.3     1  UNL1        0.0175
      6 C         142.3359  142.8740  165.5343 C.3     1  UNL1        0.0724
      7 C         143.8152  141.3469  162.1832 C.3     1  UNL1        0.0217
      8 C         143.8955  141.6817  160.7233 C.3     1  UNL1        0.0937
      9 N         143.2763  142.9474  160.2089 N.am    1  UNL1       -0.2761
     10 C         143.3567  143.2821  158.7489 C.2     1  UNL1        0.2491
     11 O         142.7375  144.5478  158.2345 O.2     1  UNL1       -0.2699
     12 C         142.5768  143.8783  161.1544 C.3     1  UNL1        0.0937
     13 C         142.4965  143.5435  162.6144 C.3     1  UNL1        0.0217
     14 C         144.0562  142.3512  157.8034 C.ar    1  UNL1        0.0567
     15 C         145.5079  142.5557  157.4862 C.ar    1  UNL1        0.0252
     16 C         146.2074  141.6248  156.5407 C.ar    1  UNL1        0.0990
     17 N         145.4552  140.4893  155.9123 N.ar    1  UNL1       -0.2423
     18 C         144.0034  140.2848  156.2295 C.ar    1  UNL1        0.0990
     19 C         143.3039  141.2157  157.1751 C.ar    1  UNL1        0.0252
     20 C         142.8748  141.2736  167.5087 C.3     1  UNL1        0.1022
     21 C         138.8596  138.0131  164.6222 C.3     1  UNL1        0.0476
     22 C         139.2586  138.7940  165.8392 C.3     1  UNL1        0.1704
     23 C         138.4185  139.0097  167.0630 C.3     1  UNL1        0.0729
     24 C         139.2084  139.8454  168.0261 C.ar    1  UNL1        0.0151
     25 C         138.8898  140.3713  169.3943 C.ar    1  UNL1       -0.0012
     26 C         139.8994  141.1980  170.1339 C.ar    1  UNL1       -0.0004
     27 C         141.2278  141.4988  169.5054 C.ar    1  UNL1        0.0001
     28 C         141.5465  140.9729  168.1372 C.ar    1  UNL1        0.0275
     29 C         140.5367  140.1461  167.3976 C.ar    1  UNL1        0.1317
     30 O         140.5678  139.4964  166.0460 O.3     1  UNL1       -0.4794
@<TRIPOS>BOND
     1    21    22    1
     2    22    23    1
     3    23    24    1
     4    24    25   ar
     5    25    26   ar
     6    26    27   ar
     7    27    28   ar
     8    28    20    1
     9    20     1    1
    10     1     2    1
    11     2     3    1
    12     3     4    1
    13     4     5    1
    14     5     6    1
    15     4     7    1
    16     7     8    1
    17     8     9    1
    18     9    10   am
    19    10    11    2
    20    10    14    1
    21    14    15   ar
    22    15    16   ar
    23    16    17   ar
    24    17    18   ar
    25    18    19   ar
    26     9    12    1
    27    12    13    1
    28    28    29   ar
    29    29    30    1
    30    30    22    1
    31    29    24   ar
    32     6     1    1
    33    19    14   ar
    34    13     4    1
@<TRIPOS>MOLECULE
*****
 30 34 0 0 0
SMALL
GASTEIGER

@<TRIPOS>ATOM
      1 N         142.7365  138.8644  161.2187 N.3     1  UNL1       -0.2689
      2 C         143.4177  139.7329  162.2344 C.3     1  UNL1        0.0724
      3 C         142.7966  139.9363  163.5845 C.3     1  UNL1        0.0175
      4 C         141.4944  139.2712  163.9189 C.3     1  UNL1        0.0060
      5 C         140.8131  138.4028  162.9032 C.3     1  UNL1        0.0175
      6 C         141.4342  138.1994  161.5531 C.3     1  UNL1        0.0724
      7 C         142.1756  140.1397  164.9348 C.3     1  UNL1        0.0217
      8 C         141.5545  140.3431  166.2849 C.3     1  UNL1        0.0937
      9 N         140.2522  139.6781  166.6193 N.am    1  UNL1       -0.2761
     10 C         139.6312  139.8815  167.9695 C.2     1  UNL1        0.2491
     11 O         138.3289  139.2165  168.3039 O.2     1  UNL1       -0.2699
     12 C         139.5710  138.8097  165.6035 C.3     1  UNL1        0.0937
     13 C         140.1921  138.6062  164.2533 C.3     1  UNL1        0.0217
     14 C         140.3124  140.7500  168.9852 C.ar    1  UNL1        0.0567
     15 C         140.1390  142.2391  168.9358 C.ar    1  UNL1        0.0252
     16 C         140.8203  143.1075  169.9516 C.ar    1  UNL1        0.0990
     17 N         141.6749  142.4868  171.0167 N.ar    1  UNL1       -0.2423
     18 C         141.8482  140.9977  171.0660 C.ar    1  UNL1        0.0990
     19 C         141.1669  140.1292  170.0502 C.ar    1  UNL1        0.0252
     20 C         143.3575  138.6610  159.8685 C.3     1  UNL1        0.1022
     21 C         142.9717  134.0283  156.1978 C.3     1  UNL1        0.0476
     22 C         142.5870  135.4346  156.5505 C.3     1  UNL1        0.1704
     23 C         141.6750  136.3242  155.7587 C.3     1  UNL1        0.0729
     24 C         141.5711  137.6376  156.4757 C.ar    1  UNL1        0.0151
     25 C         140.8141  138.8944  156.1636 C.ar    1  UNL1       -0.0012
     26 C         140.9048  140.0733  157.0865 C.ar    1  UNL1       -0.0004
     27 C         141.7527  139.9956  158.3215 C.ar    1  UNL1        0.0001
     28 C         142.5097  138.7388  158.6336 C.ar    1  UNL1        0.0275
     29 C         142.4189  137.5598  157.7106 C.ar    1  UNL1        0.1317
     30 O         143.0468  136.1983  157.7569 O.3     1  UNL1       -0.4794
@<TRIPOS>BOND
     1    21    22    1
     2    22    23    1
     3    23    24    1
     4    24    25   ar
     5    25    26   ar
     6    26    27   ar
     7    27    28   ar
     8    28    20    1
     9    20     1    1
    10     1     2    1
    11     2     3    1
    12     3     4    1
    13     4     5    1
    14     5     6    1
    15     4     7    1
    16     7     8    1
    17     8     9    1
    18     9    10   am
    19    10    11    2
    20    10    14    1
    21    14    15   ar
    22    15    16   ar
    23    16    17   ar
    24    17    18   ar
    25    18    19   ar
    26     9    12    1
    27    12    13    1
    28    28    29   ar
    29    29    30    1
    30    30    22    1
    31    29    24   ar
    32     6     1    1
    33    19    14   ar
    34    13     4    1
