@<TRIPOS>MOLECULE
*****
 27 30 0 0 0
SMALL
GASTEIGER

@<TRIPOS>ATOM
      1 C         137.7404  138.3869  166.6840 C.3     1  UNL1        0.0307
      2 C         138.9362  138.5524  165.7937 C.ar    1  UNL1       -0.0242
      3 C         138.9749  137.8749  164.4561 C.ar    1  UNL1        0.0161
      4 C         140.1707  138.0404  163.5658 C.ar    1  UNL1        0.0983
      5 N         140.4909  137.4986  162.2041 N.ar    1  UNL1       -0.2268
      6 C         141.8460  138.0069  161.8100 C.ar    1  UNL1        0.1438
      7 N         142.3633  138.8628  162.9280 N.ar    1  UNL1       -0.3072
      8 C         141.3279  138.8834  164.0131 C.ar    1  UNL1        0.0788
      9 C         141.2892  139.5610  165.3508 C.ar    1  UNL1        0.0142
     10 C         140.0934  139.3955  166.2411 C.ar    1  UNL1       -0.0243
     11 C         140.0548  140.0731  167.5788 C.3     1  UNL1        0.0307
     12 C         142.5588  137.7113  160.5236 C.2     1  UNL1        0.0338
     13 C         141.9657  138.1535  159.2188 C.2     1  UNL1       -0.0074
     14 C         142.6785  137.8579  157.9325 C.3     1  UNL1        0.0800
     15 C         142.6980  136.5390  157.2183 C.3     1  UNL1        0.0219
     16 C         143.5285  136.6953  155.9790 C.3     1  UNL1        0.0191
     17 C         144.0221  138.1107  155.9272 C.3     1  UNL1        0.0724
     18 N         143.4968  138.8293  157.1346 N.3     1  UNL1       -0.2691
     19 C         143.7461  140.2669  157.4829 C.3     1  UNL1        0.0899
     20 C         143.6840  139.5732  162.9560 C.3     1  UNL1        0.1342
     21 C         143.7412  141.0380  163.2739 C.ar    1  UNL1        0.0005
     22 C         144.5242  141.5182  164.4598 C.ar    1  UNL1       -0.0015
     23 C         144.5814  142.9829  164.7777 C.ar    1  UNL1        0.0111
     24 C         143.8556  143.9677  163.9097 C.ar    1  UNL1        0.0577
     25 CL        143.9128  145.4325  164.2275 Cl      1  UNL1       -0.0822
     26 C         143.0726  143.4876  162.7238 C.ar    1  UNL1        0.0111
     27 C         143.0154  142.0228  162.4058 C.ar    1  UNL1       -0.0015
@<TRIPOS>BOND
     1     1     2    1
     2     2     3   ar
     3     3     4   ar
     4     4     5   ar
     5     5     6   ar
     6     6    12    1
     7    12    13    2
     8    13    14    1
     9    14    15    1
    10    15    16    1
    11    16    17    1
    12    17    18    1
    13    18    19    1
    14     6     7   ar
    15     7    20    1
    16    20    21    1
    17    21    22   ar
    18    22    23   ar
    19    23    24   ar
    20    24    25    1
    21    24    26   ar
    22    26    27   ar
    23     7     8   ar
    24     8     9   ar
    25     9    10   ar
    26    10    11    1
    27    10     2   ar
    28     8     4   ar
    29    18    14    1
    30    27    21   ar
@<TRIPOS>MOLECULE
*****
 27 30 0 0 0
SMALL
GASTEIGER

@<TRIPOS>ATOM
      1 C         142.4027  139.3489  169.0280 C.3     1  UNL1        0.0307
      2 C         142.7765  139.9521  167.7065 C.ar    1  UNL1       -0.0242
      3 C         142.9751  139.0707  166.5091 C.ar    1  UNL1        0.0161
      4 C         143.3490  139.6739  165.1876 C.ar    1  UNL1        0.0983
      5 N         143.6091  139.0623  163.8428 N.ar    1  UNL1       -0.2268
      6 C         143.9452  140.1688  162.8876 C.ar    1  UNL1        0.1438
      7 N         143.8927  141.4643  163.6420 N.ar    1  UNL1       -0.3072
      8 C         143.5243  141.1584  165.0634 C.ar    1  UNL1        0.0788
      9 C         143.3257  142.0397  166.2608 C.ar    1  UNL1        0.0142
     10 C         142.9518  141.4366  167.5823 C.ar    1  UNL1       -0.0243
     11 C         142.7532  142.3180  168.7797 C.3     1  UNL1        0.0307
     12 C         144.2757  140.0082  161.4332 C.2     1  UNL1        0.0338
     13 C         143.2664  140.3831  160.3889 C.2     1  UNL1       -0.0074
     14 C         143.5969  140.2225  158.9346 C.3     1  UNL1        0.0800
     15 C         144.2873  141.2354  158.0703 C.3     1  UNL1        0.0219
     16 C         144.4122  140.6597  156.6909 C.3     1  UNL1        0.0191
     17 C         143.7990  139.2908  156.7027 C.3     1  UNL1        0.0724
     18 N         143.2951  139.0206  158.0895 N.3     1  UNL1       -0.2691
     19 C         142.6098  137.7683  158.5501 C.3     1  UNL1        0.0899
     20 C         144.1616  142.8265  163.0745 C.3     1  UNL1        0.1342
     21 C         143.0184  143.7347  162.7304 C.ar    1  UNL1        0.0005
     22 C         142.4943  143.7816  161.3257 C.ar    1  UNL1       -0.0015
     23 C         141.3512  144.6897  160.9815 C.ar    1  UNL1        0.0111
     24 C         140.7321  145.5510  162.0421 C.ar    1  UNL1        0.0577
     25 CL        139.5889  146.4592  161.6980 Cl      1  UNL1       -0.0822
     26 C         141.2561  145.5042  163.4468 C.ar    1  UNL1        0.0111
     27 C         142.3993  144.5960  163.7910 C.ar    1  UNL1       -0.0015
@<TRIPOS>BOND
     1     1     2    1
     2     2     3   ar
     3     3     4   ar
     4     4     5   ar
     5     5     6   ar
     6     6    12    1
     7    12    13    2
     8    13    14    1
     9    14    15    1
    10    15    16    1
    11    16    17    1
    12    17    18    1
    13    18    19    1
    14     6     7   ar
    15     7    20    1
    16    20    21    1
    17    21    22   ar
    18    22    23   ar
    19    23    24   ar
    20    24    25    1
    21    24    26   ar
    22    26    27   ar
    23     7     8   ar
    24     8     9   ar
    25     9    10   ar
    26    10    11    1
    27    10     2   ar
    28     8     4   ar
    29    18    14    1
    30    27    21   ar
@<TRIPOS>MOLECULE
*****
 27 30 0 0 0
SMALL
GASTEIGER

@<TRIPOS>ATOM
      1 C         140.2155  140.3902  170.7387 C.3     1  UNL1        0.0307
      2 C         140.9146  140.6103  169.4300 C.ar    1  UNL1       -0.0242
      3 C         140.4372  141.6821  168.4956 C.ar    1  UNL1        0.0161
      4 C         141.1364  141.9022  167.1868 C.ar    1  UNL1        0.0983
      5 N         140.8945  142.8749  166.0708 N.ar    1  UNL1       -0.2268
      6 C         141.9216  142.6242  165.0068 C.ar    1  UNL1        0.1438
      7 N         142.7982  141.4966  165.4652 N.ar    1  UNL1       -0.3072
      8 C         142.3129  141.0504  166.8125 C.ar    1  UNL1        0.0788
      9 C         142.7903  139.9785  167.7469 C.ar    1  UNL1        0.0142
     10 C         142.0911  139.7584  169.0556 C.ar    1  UNL1       -0.0243
     11 C         142.5686  138.6865  169.9900 C.3     1  UNL1        0.0307
     12 C         142.0496  143.3702  163.7116 C.2     1  UNL1        0.0338
     13 C         141.1973  142.9874  162.5382 C.2     1  UNL1       -0.0074
     14 C         141.3254  143.7333  161.2432 C.3     1  UNL1        0.0800
     15 C         142.0853  143.2758  160.0336 C.3     1  UNL1        0.0219
     16 C         141.9456  144.3274  158.9732 C.3     1  UNL1        0.0191
     17 C         141.0993  145.4349  159.5275 C.3     1  UNL1        0.0724
     18 N         140.7160  145.0678  160.9305 N.3     1  UNL1       -0.2691
     19 C         139.8715  145.8906  161.8577 C.3     1  UNL1        0.0899
     20 C         143.9567  140.9170  164.7090 C.3     1  UNL1        0.1342
     21 C         143.7109  140.0264  163.5272 C.ar    1  UNL1        0.0005
     22 C         142.7936  138.8465  163.6552 C.ar    1  UNL1       -0.0015
     23 C         142.5477  137.9559  162.4735 C.ar    1  UNL1        0.0111
     24 C         143.2192  138.2452  161.1638 C.ar    1  UNL1        0.0577
     25 CL        142.9735  137.3546  159.9821 Cl      1  UNL1       -0.0822
     26 C         144.1366  139.4251  161.0358 C.ar    1  UNL1        0.0111
     27 C         144.3824  140.3157  162.2175 C.ar    1  UNL1       -0.0015
@<TRIPOS>BOND
     1     1     2    1
     2     2     3   ar
     3     3     4   ar
     4     4     5   ar
     5     5     6   ar
     6     6    12    1
     7    12    13    2
     8    13    14    1
     9    14    15    1
    10    15    16    1
    11    16    17    1
    12    17    18    1
    13    18    19    1
    14     6     7   ar
    15     7    20    1
    16    20    21    1
    17    21    22   ar
    18    22    23   ar
    19    23    24   ar
    20    24    25    1
    21    24    26   ar
    22    26    27   ar
    23     7     8   ar
    24     8     9   ar
    25     9    10   ar
    26    10    11    1
    27    10     2   ar
    28     8     4   ar
    29    18    14    1
    30    27    21   ar
@<TRIPOS>MOLECULE
*****
 27 30 0 0 0
SMALL
GASTEIGER

@<TRIPOS>ATOM
      1 C         140.2300  145.5783  158.6404 C.3     1  UNL1        0.0307
      2 C         140.5402  144.5472  159.6848 C.ar    1  UNL1       -0.0242
      3 C         141.1101  144.9670  161.0072 C.ar    1  UNL1        0.0161
      4 C         141.4202  143.9358  162.0516 C.ar    1  UNL1        0.0983
      5 N         141.9837  144.0486  163.4372 N.ar    1  UNL1       -0.2268
      6 C         142.0722  142.6674  164.0153 C.ar    1  UNL1        0.1438
      7 N         141.5635  141.7010  162.9871 N.ar    1  UNL1       -0.3072
      8 C         141.1605  142.4850  161.7734 C.ar    1  UNL1        0.0788
      9 C         140.5906  142.0652  160.4510 C.ar    1  UNL1        0.0142
     10 C         140.2805  143.0963  159.4066 C.ar    1  UNL1       -0.0243
     11 C         139.7106  142.6764  158.0841 C.3     1  UNL1        0.0307
     12 C         142.5803  142.3144  165.3819 C.2     1  UNL1        0.0338
     13 C         141.6270  142.2244  166.5364 C.2     1  UNL1       -0.0074
     14 C         142.1351  141.8714  167.9028 C.3     1  UNL1        0.0800
     15 C         143.3916  142.3895  168.5372 C.3     1  UNL1        0.0219
     16 C         143.5090  141.7767  169.9012 C.3     1  UNL1        0.0191
     17 C         142.3249  140.8798  170.1099 C.3     1  UNL1        0.0724
     18 N         141.4757  140.9384  168.8747 N.3     1  UNL1       -0.2691
     19 C         140.1926  140.1944  168.6509 C.3     1  UNL1        0.0899
     20 C         141.4735  140.2120  163.1448 C.3     1  UNL1        0.1342
     21 C         140.4514  139.6158  164.0667 C.ar    1  UNL1        0.0005
     22 C         140.5647  138.1794  164.4836 C.ar    1  UNL1       -0.0015
     23 C         139.5427  137.5831  165.4056 C.ar    1  UNL1        0.0111
     24 C         138.4073  138.4233  165.9106 C.ar    1  UNL1        0.0577
     25 CL        137.3853  137.8271  166.8325 Cl      1  UNL1       -0.0822
     26 C         138.2940  139.8597  165.4937 C.ar    1  UNL1        0.0111
     27 C         139.3161  140.4560  164.5717 C.ar    1  UNL1       -0.0015
@<TRIPOS>BOND
     1     1     2    1
     2     2     3   ar
     3     3     4   ar
     4     4     5   ar
     5     5     6   ar
     6     6    12    1
     7    12    13    2
     8    13    14    1
     9    14    15    1
    10    15    16    1
    11    16    17    1
    12    17    18    1
    13    18    19    1
    14     6     7   ar
    15     7    20    1
    16    20    21    1
    17    21    22   ar
    18    22    23   ar
    19    23    24   ar
    20    24    25    1
    21    24    26   ar
    22    26    27   ar
    23     7     8   ar
    24     8     9   ar
    25     9    10   ar
    26    10    11    1
    27    10     2   ar
    28     8     4   ar
    29    18    14    1
    30    27    21   ar
@<TRIPOS>MOLECULE
*****
 27 30 0 0 0
SMALL
GASTEIGER

@<TRIPOS>ATOM
      1 C         142.9862  139.9123  170.6972 C.3     1  UNL1        0.0307
      2 C         142.1759  140.1208  169.4522 C.ar    1  UNL1       -0.0242
      3 C         142.5029  139.3512  168.2069 C.ar    1  UNL1        0.0161
      4 C         141.6927  139.5596  166.9619 C.ar    1  UNL1        0.0983
      5 N         141.7789  138.9492  165.5944 N.ar    1  UNL1       -0.2268
      6 C         140.6948  139.5501  164.7495 C.ar    1  UNL1        0.1438
      7 N         139.9388  140.5318  165.5948 N.ar    1  UNL1       -0.3072
      8 C         140.5555  140.5377  166.9622 C.ar    1  UNL1        0.0788
      9 C         140.2285  141.3073  168.2074 C.ar    1  UNL1        0.0142
     10 C         141.0387  141.0988  169.4525 C.ar    1  UNL1       -0.0243
     11 C         140.7116  141.8685  170.6978 C.3     1  UNL1        0.0307
     12 C         140.4158  139.2261  163.3117 C.2     1  UNL1        0.0338
     13 C         141.3016  139.7763  162.2334 C.2     1  UNL1       -0.0074
     14 C         141.0225  139.4523  160.7957 C.3     1  UNL1        0.0800
     15 C         139.9110  140.0199  159.9637 C.3     1  UNL1        0.0219
     16 C         140.0076  139.4222  158.5913 C.3     1  UNL1        0.0191
     17 C         141.1788  138.4852  158.5751 C.3     1  UNL1        0.0724
     18 N         141.8061  138.5038  159.9375 N.3     1  UNL1       -0.2691
     19 C         143.0062  137.7128  160.3664 C.3     1  UNL1        0.0899
     20 C         138.7710  141.3619  165.1508 C.3     1  UNL1        0.1342
     21 C         138.9986  142.6071  164.3461 C.ar    1  UNL1        0.0005
     22 C         140.3802  143.1783  164.2227 C.ar    1  UNL1       -0.0015
     23 C         140.6080  144.4235  163.4180 C.ar    1  UNL1        0.0111
     24 C         139.4542  145.0976  162.7366 C.ar    1  UNL1        0.0577
     25 CL        139.6819  146.3427  161.9319 Cl      1  UNL1       -0.0822
     26 C         138.0726  144.5265  162.8599 C.ar    1  UNL1        0.0111
     27 C         137.8449  143.2812  163.6647 C.ar    1  UNL1       -0.0015
@<TRIPOS>BOND
     1     1     2    1
     2     2     3   ar
     3     3     4   ar
     4     4     5   ar
     5     5     6   ar
     6     6    12    1
     7    12    13    2
     8    13    14    1
     9    14    15    1
    10    15    16    1
    11    16    17    1
    12    17    18    1
    13    18    19    1
    14     6     7   ar
    15     7    20    1
    16    20    21    1
    17    21    22   ar
    18    22    23   ar
    19    23    24   ar
    20    24    25    1
    21    24    26   ar
    22    26    27   ar
    23     7     8   ar
    24     8     9   ar
    25     9    10   ar
    26    10    11    1
    27    10     2   ar
    28     8     4   ar
    29    18    14    1
    30    27    21   ar
@<TRIPOS>MOLECULE
*****
 27 30 0 0 0
SMALL
GASTEIGER

@<TRIPOS>ATOM
      1 C         142.2755  140.0795  170.6485 C.3     1  UNL1        0.0307
      2 C         142.5517  140.4564  169.2231 C.ar    1  UNL1       -0.0242
      3 C         142.4042  139.4346  168.1350 C.ar    1  UNL1        0.0161
      4 C         142.6805  139.8115  166.7097 C.ar    1  UNL1        0.0983
      5 N         142.6202  139.0250  165.4337 N.ar    1  UNL1       -0.2268
      6 C         143.0067  139.9378  164.3080 C.ar    1  UNL1        0.1438
      7 N         143.3058  141.2883  164.8881 N.ar    1  UNL1       -0.3072
      8 C         143.1042  141.2103  166.3724 C.ar    1  UNL1        0.0788
      9 C         143.2517  142.2321  167.4605 C.ar    1  UNL1        0.0142
     10 C         142.9755  141.8552  168.8859 C.ar    1  UNL1       -0.0243
     11 C         143.1230  142.8772  169.9740 C.3     1  UNL1        0.0307
     12 C         143.0810  139.5654  162.8568 C.2     1  UNL1        0.0338
     13 C         141.8224  139.3010  162.0849 C.2     1  UNL1       -0.0074
     14 C         141.8968  138.9287  160.6338 C.3     1  UNL1        0.0800
     15 C         143.1524  138.7264  159.8387 C.3     1  UNL1        0.0219
     16 C         142.7602  138.3659  158.4365 C.3     1  UNL1        0.0191
     17 C         141.2621  138.3455  158.3649 C.3     1  UNL1        0.0724
     18 N         140.7284  138.6933  159.7230 N.3     1  UNL1       -0.2691
     19 C         139.2806  138.7889  160.1034 C.3     1  UNL1        0.0899
     20 C         143.7318  142.5036  164.1189 C.3     1  UNL1        0.1342
     21 C         142.6994  143.4298  163.5478 C.ar    1  UNL1        0.0005
     22 C         142.7503  143.8063  162.0967 C.ar    1  UNL1       -0.0015
     23 C         141.7179  144.7325  161.5254 C.ar    1  UNL1        0.0111
     24 C         140.6345  145.2822  162.4052 C.ar    1  UNL1        0.0577
     25 CL        139.6020  146.2083  161.8341 Cl      1  UNL1       -0.0822
     26 C         140.5835  144.9057  163.8563 C.ar    1  UNL1        0.0111
     27 C         141.6160  143.9795  164.4276 C.ar    1  UNL1       -0.0015
@<TRIPOS>BOND
     1     1     2    1
     2     2     3   ar
     3     3     4   ar
     4     4     5   ar
     5     5     6   ar
     6     6    12    1
     7    12    13    2
     8    13    14    1
     9    14    15    1
    10    15    16    1
    11    16    17    1
    12    17    18    1
    13    18    19    1
    14     6     7   ar
    15     7    20    1
    16    20    21    1
    17    21    22   ar
    18    22    23   ar
    19    23    24   ar
    20    24    25    1
    21    24    26   ar
    22    26    27   ar
    23     7     8   ar
    24     8     9   ar
    25     9    10   ar
    26    10    11    1
    27    10     2   ar
    28     8     4   ar
    29    18    14    1
    30    27    21   ar
@<TRIPOS>MOLECULE
*****
 27 30 0 0 0
SMALL
GASTEIGER

@<TRIPOS>ATOM
      1 C         140.8581  145.9280  157.6448 C.3     1  UNL1        0.0307
      2 C         140.3972  145.1088  158.8138 C.ar    1  UNL1       -0.0242
      3 C         140.7486  145.5300  160.2098 C.ar    1  UNL1        0.0161
      4 C         140.2877  144.7109  161.3788 C.ar    1  UNL1        0.0983
      5 N         140.4786  144.8757  162.8575 N.ar    1  UNL1       -0.2268
      6 C         139.7843  143.7372  163.5443 C.ar    1  UNL1        0.1438
      7 N         139.1642  142.8688  162.4901 N.ar    1  UNL1       -0.3072
      8 C         139.4753  143.4705  161.1518 C.ar    1  UNL1        0.0788
      9 C         139.1239  143.0494  159.7557 C.ar    1  UNL1        0.0142
     10 C         139.5848  143.8685  158.5867 C.ar    1  UNL1       -0.0243
     11 C         139.2333  143.4472  157.1906 C.3     1  UNL1        0.0307
     12 C         139.7210  143.5074  165.0253 C.2     1  UNL1        0.0338
     13 C         140.7217  142.6079  165.6881 C.2     1  UNL1       -0.0074
     14 C         140.6585  142.3781  167.1690 C.3     1  UNL1        0.0800
     15 C         140.2732  143.3940  168.2031 C.3     1  UNL1        0.0219
     16 C         140.3460  142.7359  169.5491 C.3     1  UNL1        0.0191
     17 C         140.7763  141.3132  169.3467 C.3     1  UNL1        0.0724
     18 N         140.9694  141.0921  167.8757 N.3     1  UNL1       -0.2691
     19 C         141.3981  139.8100  167.2257 C.3     1  UNL1        0.0899
     20 C         138.3720  141.6182  162.7317 C.3     1  UNL1        0.1342
     21 C         139.0655  140.3659  163.1797 C.ar    1  UNL1        0.0005
     22 C         138.5192  139.5775  164.3330 C.ar    1  UNL1       -0.0015
     23 C         139.2127  138.3252  164.7810 C.ar    1  UNL1        0.0111
     24 C         140.4525  137.8611  164.0757 C.ar    1  UNL1        0.0577
     25 CL        141.1460  136.6088  164.5237 Cl      1  UNL1       -0.0822
     26 C         140.9988  138.6493  162.9224 C.ar    1  UNL1        0.0111
     27 C         140.3053  139.9017  162.4744 C.ar    1  UNL1       -0.0015
@<TRIPOS>BOND
     1     1     2    1
     2     2     3   ar
     3     3     4   ar
     4     4     5   ar
     5     5     6   ar
     6     6    12    1
     7    12    13    2
     8    13    14    1
     9    14    15    1
    10    15    16    1
    11    16    17    1
    12    17    18    1
    13    18    19    1
    14     6     7   ar
    15     7    20    1
    16    20    21    1
    17    21    22   ar
    18    22    23   ar
    19    23    24   ar
    20    24    25    1
    21    24    26   ar
    22    26    27   ar
    23     7     8   ar
    24     8     9   ar
    25     9    10   ar
    26    10    11    1
    27    10     2   ar
    28     8     4   ar
    29    18    14    1
    30    27    21   ar
@<TRIPOS>MOLECULE
*****
 27 30 0 0 0
SMALL
GASTEIGER

@<TRIPOS>ATOM
      1 C         138.4554  145.1366  165.8431 C.3     1  UNL1        0.0307
      2 C         138.7024  144.0202  164.8723 C.ar    1  UNL1       -0.0242
      3 C         137.9953  144.0063  163.5495 C.ar    1  UNL1        0.0161
      4 C         138.2423  142.8899  162.5787 C.ar    1  UNL1        0.0983
      5 N         137.6948  142.6100  161.2104 N.ar    1  UNL1       -0.2268
      6 C         138.3105  141.3345  160.7168 C.ar    1  UNL1        0.1438
      7 N         139.2386  140.8260  161.7799 N.ar    1  UNL1       -0.3072
      8 C         139.1964  141.7873  162.9306 C.ar    1  UNL1        0.0788
      9 C         139.9035  141.8011  164.2533 C.ar    1  UNL1        0.0142
     10 C         139.6565  142.9176  165.2242 C.ar    1  UNL1       -0.0243
     11 C         140.3637  142.9314  166.5470 C.3     1  UNL1        0.0307
     12 C         138.0449  140.6819  159.3925 C.2     1  UNL1        0.0338
     13 C         139.0473  140.8012  158.2831 C.2     1  UNL1       -0.0074
     14 C         138.7816  140.1487  156.9589 C.3     1  UNL1        0.0800
     15 C         138.0608  140.7691  155.7990 C.3     1  UNL1        0.0219
     16 C         138.0238  139.7649  154.6854 C.3     1  UNL1        0.0191
     17 C         138.7218  138.5238  155.1570 C.3     1  UNL1        0.0724
     18 N         139.1902  138.7609  156.5622 N.3     1  UNL1       -0.2691
     19 C         139.9361  137.7822  157.4199 C.3     1  UNL1        0.0899
     20 C         140.0639  139.5757  161.7054 C.3     1  UNL1        0.1342
     21 C         140.9851  139.2167  162.8335 C.ar    1  UNL1        0.0005
     22 C         140.4939  138.3523  163.9567 C.ar    1  UNL1       -0.0015
     23 C         141.4150  137.9932  165.0848 C.ar    1  UNL1        0.0111
     24 C         142.8273  138.4986  165.0898 C.ar    1  UNL1        0.0577
     25 CL        143.7484  138.1396  166.2179 Cl      1  UNL1       -0.0822
     26 C         143.3185  139.3630  163.9666 C.ar    1  UNL1        0.0111
     27 C         142.3973  139.7221  162.8384 C.ar    1  UNL1       -0.0015
@<TRIPOS>BOND
     1     1     2    1
     2     2     3   ar
     3     3     4   ar
     4     4     5   ar
     5     5     6   ar
     6     6    12    1
     7    12    13    2
     8    13    14    1
     9    14    15    1
    10    15    16    1
    11    16    17    1
    12    17    18    1
    13    18    19    1
    14     6     7   ar
    15     7    20    1
    16    20    21    1
    17    21    22   ar
    18    22    23   ar
    19    23    24   ar
    20    24    25    1
    21    24    26   ar
    22    26    27   ar
    23     7     8   ar
    24     8     9   ar
    25     9    10   ar
    26    10    11    1
    27    10     2   ar
    28     8     4   ar
    29    18    14    1
    30    27    21   ar
@<TRIPOS>MOLECULE
*****
 27 30 0 0 0
SMALL
GASTEIGER

@<TRIPOS>ATOM
      1 C         140.1334  140.4842  171.0363 C.3     1  UNL1        0.0307
      2 C         140.5620  140.1446  169.6396 C.ar    1  UNL1       -0.0242
      3 C         139.5447  140.0722  168.5396 C.ar    1  UNL1        0.0161
      4 C         139.9733  139.7327  167.1428 C.ar    1  UNL1        0.0983
      5 N         139.2033  139.5891  165.8635 N.ar    1  UNL1       -0.2268
      6 C         140.1732  139.2331  164.7762 C.ar    1  UNL1        0.1438
      7 N         141.5427  139.1567  165.3834 N.ar    1  UNL1       -0.3072
      8 C         141.4192  139.4654  166.8460 C.ar    1  UNL1        0.0788
      9 C         142.4364  139.5378  167.9460 C.ar    1  UNL1        0.0142
     10 C         142.0078  139.8773  169.3428 C.ar    1  UNL1       -0.0243
     11 C         143.0251  139.9497  170.4428 C.3     1  UNL1        0.0307
     12 C         139.8334  138.9952  163.3346 C.2     1  UNL1        0.0338
     13 C         140.0824  140.0698  162.3182 C.2     1  UNL1       -0.0074
     14 C         139.7426  139.8320  160.8767 C.3     1  UNL1        0.0800
     15 C         140.1141  138.6224  160.0713 C.3     1  UNL1        0.0219
     16 C         139.5727  138.8048  158.6843 C.3     1  UNL1        0.0191
     17 C         138.8665  140.1271  158.6326 C.3     1  UNL1        0.0724
     18 N         138.9715  140.7620  159.9876 N.3     1  UNL1       -0.2691
     19 C         138.4049  142.0931  160.3839 C.3     1  UNL1        0.0899
     20 C         142.8128  138.8290  164.6557 C.3     1  UNL1        0.1342
     21 C         143.3504  139.7741  163.6224 C.ar    1  UNL1        0.0005
     22 C         143.7493  139.2600  162.2709 C.ar    1  UNL1       -0.0015
     23 C         144.2869  140.2050  161.2375 C.ar    1  UNL1        0.0111
     24 C         144.4257  141.6643  161.5557 C.ar    1  UNL1        0.0577
     25 CL        144.9633  142.6094  160.5224 Cl      1  UNL1       -0.0822
     26 C         144.0268  142.1785  162.9071 C.ar    1  UNL1        0.0111
     27 C         143.4892  141.2334  163.9405 C.ar    1  UNL1       -0.0015
@<TRIPOS>BOND
     1     1     2    1
     2     2     3   ar
     3     3     4   ar
     4     4     5   ar
     5     5     6   ar
     6     6    12    1
     7    12    13    2
     8    13    14    1
     9    14    15    1
    10    15    16    1
    11    16    17    1
    12    17    18    1
    13    18    19    1
    14     6     7   ar
    15     7    20    1
    16    20    21    1
    17    21    22   ar
    18    22    23   ar
    19    23    24   ar
    20    24    25    1
    21    24    26   ar
    22    26    27   ar
    23     7     8   ar
    24     8     9   ar
    25     9    10   ar
    26    10    11    1
    27    10     2   ar
    28     8     4   ar
    29    18    14    1
    30    27    21   ar
