@<TRIPOS>MOLECULE
*****
 21 24 0 0 0
SMALL
GASTEIGER

@<TRIPOS>ATOM
      1 C         143.1330  142.2351  166.9244 C.3     1  UNL1        0.0229
      2 C         142.6059  141.9581  168.3012 C.3     1  UNL1        0.0899
      3 C         143.3549  142.4499  169.5041 C.3     1  UNL1        0.0886
      4 N         142.8278  142.1729  170.8808 N.3     1  UNL1       -0.2947
      5 C         141.5517  141.4040  171.0547 C.3     1  UNL1        0.0889
      6 C         140.8027  140.9121  169.8518 C.3     1  UNL1        0.0942
      7 C         139.5278  140.1342  169.7121 C.3     1  UNL1        0.0503
      8 C         139.2669  139.9305  168.2491 C.ar    1  UNL1        0.0111
      9 C         138.1592  139.2355  167.5143 C.ar    1  UNL1       -0.0002
     10 C         138.1651  139.1925  166.0150 C.ar    1  UNL1        0.0170
     11 C         139.2788  139.8444  165.2504 C.ar    1  UNL1        0.0902
     12 N         140.3866  140.5394  165.9852 N.ar    1  UNL1       -0.2328
     13 C         140.3806  140.5824  167.4846 C.ar    1  UNL1        0.1273
     14 N         141.3298  141.1892  168.4750 N.pl3   1  UNL1       -0.2937
     15 H         142.6900  143.0778  171.3309 H       1  UNL1        0.1233
     16 C         139.2848  139.8015  163.7510 C.3     1  UNL1        0.1875
     17 O         137.9952  139.9089  162.9924 O.3     1  UNL1       -0.3474
     18 C         137.5959  141.2155  162.3733 C.3     1  UNL1        0.1426
     19 C         137.6901  142.4828  163.1700 C.3     1  UNL1        0.0297
     20 C         137.6859  143.9815  163.2322 C.3     1  UNL1        0.0026
     21 C         137.8575  143.1792  164.4881 C.3     1  UNL1        0.0026
@<TRIPOS>BOND
     1     2     1    1
     2     2     3    1
     3     3     4    1
     4     4     5    1
     5     6     5    1
     6     6     7    1
     7     7     8    1
     8     8     9   ar
     9     9    10   ar
    10    10    11   ar
    11    11    16    1
    12    16    17    1
    13    17    18    1
    14    18    19    1
    15    19    20    1
    16    20    21    1
    17    11    12   ar
    18    12    13   ar
    19    13    14    1
    20    14     2    1
    21    14     6    1
    22    13     8   ar
    23    21    19    1
    24     4    15    1
@<TRIPOS>MOLECULE
*****
 21 24 0 0 0
SMALL
GASTEIGER

@<TRIPOS>ATOM
      1 C         143.2319  142.2335  167.4414 C.3     1  UNL1        0.0229
      2 C         142.4586  142.0784  168.7173 C.3     1  UNL1        0.0899
      3 C         142.9658  142.7043  169.9825 C.3     1  UNL1        0.0886
      4 N         142.1925  142.5492  171.2584 N.3     1  UNL1       -0.2947
      5 C         140.9120  141.7682  171.2691 C.3     1  UNL1        0.0889
      6 C         140.4047  141.1423  170.0039 C.3     1  UNL1        0.0942
      7 C         139.1841  140.3218  169.7092 C.3     1  UNL1        0.0503
      8 C         139.2030  139.9698  168.2512 C.ar    1  UNL1        0.0111
      9 C         138.2572  139.1781  167.3975 C.ar    1  UNL1       -0.0002
     10 C         138.5439  138.9894  165.9373 C.ar    1  UNL1        0.0170
     11 C         139.7762  139.5923  165.3308 C.ar    1  UNL1        0.0902
     12 N         140.7219  140.3840  166.1846 N.ar    1  UNL1       -0.2328
     13 C         140.4353  140.5727  167.6448 C.ar    1  UNL1        0.1273
     14 N         141.1780  141.2974  168.7279 N.pl3   1  UNL1       -0.2937
     15 H         141.9664  143.4898  171.5819 H       1  UNL1        0.1233
     16 C         140.0629  139.4036  163.8706 C.3     1  UNL1        0.1875
     17 O         140.8216  138.1962  163.4051 O.3     1  UNL1       -0.3474
     18 C         142.2882  138.3006  163.1082 C.3     1  UNL1        0.1426
     19 C         143.2419  138.7328  164.1821 C.3     1  UNL1        0.0297
     20 C         144.4112  139.5617  164.6245 C.3     1  UNL1        0.0026
     21 C         143.7245  138.6525  165.6002 C.3     1  UNL1        0.0026
@<TRIPOS>BOND
     1     2     1    1
     2     2     3    1
     3     3     4    1
     4     4     5    1
     5     6     5    1
     6     6     7    1
     7     7     8    1
     8     8     9   ar
     9     9    10   ar
    10    10    11   ar
    11    11    16    1
    12    16    17    1
    13    17    18    1
    14    18    19    1
    15    19    20    1
    16    20    21    1
    17    11    12   ar
    18    12    13   ar
    19    13    14    1
    20    14     2    1
    21    14     6    1
    22    13     8   ar
    23    21    19    1
    24     4    15    1
@<TRIPOS>MOLECULE
*****
 21 24 0 0 0
SMALL
GASTEIGER

@<TRIPOS>ATOM
      1 C         138.0790  143.9428  164.5747 C.3     1  UNL1        0.0229
      2 C         139.4271  144.3807  164.0841 C.3     1  UNL1        0.0899
      3 C         139.5365  145.4954  163.0864 C.3     1  UNL1        0.0886
      4 N         140.8847  145.9333  162.5959 N.3     1  UNL1       -0.2947
      5 C         142.1235  145.2566  163.1030 C.3     1  UNL1        0.0889
      6 C         142.0141  144.1419  164.1007 C.3     1  UNL1        0.0942
      7 C         143.0509  143.2935  164.7755 C.3     1  UNL1        0.0503
      8 C         142.3436  142.3312  165.6831 C.ar    1  UNL1        0.0111
      9 C         142.8512  141.2568  166.5984 C.ar    1  UNL1       -0.0002
     10 C         141.8848  140.4360  167.4000 C.ar    1  UNL1        0.0170
     11 C         140.4108  140.6897  167.2861 C.ar    1  UNL1        0.0902
     12 N         139.9032  141.7642  166.3707 N.ar    1  UNL1       -0.2328
     13 C         140.8696  142.5849  165.5692 C.ar    1  UNL1        0.1273
     14 N         140.6660  143.7040  164.5913 N.pl3   1  UNL1       -0.2937
     15 H         140.9746  146.9230  162.8260 H       1  UNL1        0.1233
     16 C         139.4443  139.8689  168.0877 C.3     1  UNL1        0.1875
     17 O         139.4679  139.9338  169.5861 O.3     1  UNL1       -0.3474
     18 C         139.2306  141.2402  170.2840 C.3     1  UNL1        0.1426
     19 C         140.1672  142.3904  170.0613 C.3     1  UNL1        0.0297
     20 C         141.5608  142.9446  170.0350 C.3     1  UNL1        0.0026
     21 C         140.3957  143.8288  169.7020 C.3     1  UNL1        0.0026
@<TRIPOS>BOND
     1     2     1    1
     2     2     3    1
     3     3     4    1
     4     4     5    1
     5     6     5    1
     6     6     7    1
     7     7     8    1
     8     8     9   ar
     9     9    10   ar
    10    10    11   ar
    11    11    16    1
    12    16    17    1
    13    17    18    1
    14    18    19    1
    15    19    20    1
    16    20    21    1
    17    11    12   ar
    18    12    13   ar
    19    13    14    1
    20    14     2    1
    21    14     6    1
    22    13     8   ar
    23    21    19    1
    24     4    15    1
@<TRIPOS>MOLECULE
*****
 21 24 0 0 0
SMALL
GASTEIGER

@<TRIPOS>ATOM
      1 C         139.0739  140.4305  169.9108 C.3     1  UNL1        0.0229
      2 C         140.3807  141.1522  170.0580 C.3     1  UNL1        0.0899
      3 C         140.8726  141.5425  171.4202 C.3     1  UNL1        0.0886
      4 N         142.1793  142.2642  171.5674 N.3     1  UNL1       -0.2947
      5 C         142.9941  142.5955  170.3524 C.3     1  UNL1        0.0889
      6 C         142.5022  142.2052  168.9902 C.3     1  UNL1        0.0942
      7 C         143.0833  142.3958  167.6206 C.3     1  UNL1        0.0503
      8 C         142.1358  141.7919  166.6268 C.ar    1  UNL1        0.0111
      9 C         142.1846  141.6826  165.1316 C.ar    1  UNL1       -0.0002
     10 C         141.0667  141.0095  164.3919 C.ar    1  UNL1        0.0170
     11 C         139.8999  140.4457  165.1474 C.ar    1  UNL1        0.0902
     12 N         139.8511  140.5550  166.6427 N.ar    1  UNL1       -0.2328
     13 C         140.9690  141.2281  167.3824 C.ar    1  UNL1        0.1273
     14 N         141.1955  141.4835  168.8430 N.pl3   1  UNL1       -0.2937
     15 H         142.7680  141.6875  172.1685 H       1  UNL1        0.1233
     16 C         138.7819  139.7726  164.4077 C.3     1  UNL1        0.1875
     17 O         138.3854  140.2575  163.0448 O.3     1  UNL1       -0.3474
     18 C         137.3449  141.3286  162.9033 C.3     1  UNL1        0.1426
     19 C         137.6102  142.7066  163.4329 C.3     1  UNL1        0.0297
     20 C         137.7593  144.1811  163.2009 C.3     1  UNL1        0.0026
     21 C         137.9207  143.6191  164.5823 C.3     1  UNL1        0.0026
@<TRIPOS>BOND
     1     2     1    1
     2     2     3    1
     3     3     4    1
     4     4     5    1
     5     6     5    1
     6     6     7    1
     7     7     8    1
     8     8     9   ar
     9     9    10   ar
    10    10    11   ar
    11    11    16    1
    12    16    17    1
    13    17    18    1
    14    18    19    1
    15    19    20    1
    16    20    21    1
    17    11    12   ar
    18    12    13   ar
    19    13    14    1
    20    14     2    1
    21    14     6    1
    22    13     8   ar
    23    21    19    1
    24     4    15    1
@<TRIPOS>MOLECULE
*****
 21 24 0 0 0
SMALL
GASTEIGER

@<TRIPOS>ATOM
      1 C         140.3878  143.2548  168.9976 C.3     1  UNL1        0.0229
      2 C         141.1627  142.0997  169.5591 C.3     1  UNL1        0.0899
      3 C         141.3753  141.9881  171.0397 C.3     1  UNL1        0.0886
      4 N         142.1502  140.8330  171.6012 N.3     1  UNL1       -0.2947
      5 C         142.7126  139.7896  170.6820 C.3     1  UNL1        0.0889
      6 C         142.5000  139.9012  169.2014 C.3     1  UNL1        0.0942
      7 C         142.9316  139.0326  168.0571 C.3     1  UNL1        0.0503
      8 C         142.4234  139.6509  166.7884 C.ar    1  UNL1        0.0111
      9 C         142.5432  139.2366  165.3518 C.ar    1  UNL1       -0.0002
     10 C         141.9174  140.0730  164.2753 C.ar    1  UNL1        0.0170
     11 C         141.1718  141.3237  164.6355 C.ar    1  UNL1        0.0902
     12 N         141.0519  141.7380  166.0722 N.ar    1  UNL1       -0.2328
     13 C         141.6777  140.9016  167.1487 C.ar    1  UNL1        0.1273
     14 N         141.7251  141.0563  168.6399 N.pl3   1  UNL1       -0.2937
     15 H         141.5295  140.3498  172.2504 H       1  UNL1        0.1233
     16 C         140.5459  142.1601  163.5590 C.3     1  UNL1        0.1875
     17 O         141.1034  143.5166  163.2438 O.3     1  UNL1       -0.3474
     18 C         140.6235  144.7191  164.0012 C.3     1  UNL1        0.1426
     19 C         139.2932  144.6877  164.6934 C.3     1  UNL1        0.0297
     20 C         138.4330  145.0386  165.8712 C.3     1  UNL1        0.0026
     21 C         137.8490  144.2826  164.7146 C.3     1  UNL1        0.0026
@<TRIPOS>BOND
     1     2     1    1
     2     2     3    1
     3     3     4    1
     4     4     5    1
     5     6     5    1
     6     6     7    1
     7     7     8    1
     8     8     9   ar
     9     9    10   ar
    10    10    11   ar
    11    11    16    1
    12    16    17    1
    13    17    18    1
    14    18    19    1
    15    19    20    1
    16    20    21    1
    17    11    12   ar
    18    12    13   ar
    19    13    14    1
    20    14     2    1
    21    14     6    1
    22    13     8   ar
    23    21    19    1
    24     4    15    1
@<TRIPOS>MOLECULE
*****
 21 24 0 0 0
SMALL
GASTEIGER

@<TRIPOS>ATOM
      1 C         143.5510  142.4976  169.8121 C.3     1  UNL1        0.0229
      2 C         142.3058  141.6871  170.0190 C.3     1  UNL1        0.0899
      3 C         141.9024  141.2720  171.4027 C.3     1  UNL1        0.0886
      4 N         140.6573  140.4615  171.6095 N.3     1  UNL1       -0.2947
      5 C         139.8156  140.0662  170.4326 C.3     1  UNL1        0.0889
      6 C         140.2190  140.4813  169.0488 C.3     1  UNL1        0.0942
      7 C         139.5936  140.2417  167.7066 C.3     1  UNL1        0.0503
      8 C         140.4522  140.9041  166.6703 C.ar    1  UNL1        0.0111
      9 C         140.3307  141.0002  165.1783 C.ar    1  UNL1       -0.0002
     10 C         141.3653  141.7453  164.3880 C.ar    1  UNL1        0.0170
     11 C         142.5213  142.3942  165.0897 C.ar    1  UNL1        0.0902
     12 N         142.6428  142.2981  166.5817 N.ar    1  UNL1       -0.2328
     13 C         141.6083  141.5531  167.3720 C.ar    1  UNL1        0.1273
     14 N         141.4642  141.2918  168.8420 N.pl3   1  UNL1       -0.2937
     15 H         140.0562  140.9993  172.2340 H       1  UNL1        0.1233
     16 C         143.5560  143.1393  164.2994 C.3     1  UNL1        0.1875
     17 O         145.0130  142.8589  164.5190 O.3     1  UNL1       -0.3474
     18 C         145.6623  141.6894  163.8402 C.3     1  UNL1        0.1426
     19 C         145.0324  140.3305  163.9216 C.3     1  UNL1        0.0297
     20 C         144.2441  139.2239  163.2861 C.3     1  UNL1        0.0026
     21 C         144.7299  139.0834  164.6984 C.3     1  UNL1        0.0026
@<TRIPOS>BOND
     1     2     1    1
     2     2     3    1
     3     3     4    1
     4     4     5    1
     5     6     5    1
     6     6     7    1
     7     7     8    1
     8     8     9   ar
     9     9    10   ar
    10    10    11   ar
    11    11    16    1
    12    16    17    1
    13    17    18    1
    14    18    19    1
    15    19    20    1
    16    20    21    1
    17    11    12   ar
    18    12    13   ar
    19    13    14    1
    20    14     2    1
    21    14     6    1
    22    13     8   ar
    23    21    19    1
    24     4    15    1
@<TRIPOS>MOLECULE
*****
 21 24 0 0 0
SMALL
GASTEIGER

@<TRIPOS>ATOM
      1 C         140.4989  143.7349  169.7730 C.3     1  UNL1        0.0229
      2 C         141.2063  142.4289  169.9823 C.3     1  UNL1        0.0899
      3 C         141.4734  141.9351  171.3733 C.3     1  UNL1        0.0886
      4 N         142.1808  140.6291  171.5826 N.3     1  UNL1       -0.2947
      5 C         142.6211  139.8168  170.4010 C.3     1  UNL1        0.0889
      6 C         142.3540  140.3105  169.0101 C.3     1  UNL1        0.0942
      7 C         142.6677  139.7321  167.6621 C.3     1  UNL1        0.0503
      8 C         142.1542  140.6806  166.6197 C.ar    1  UNL1        0.0111
      9 C         142.1798  140.6342  165.1206 C.ar    1  UNL1       -0.0002
     10 C         141.5742  141.7525  164.3252 C.ar    1  UNL1        0.0170
     11 C         140.9432  142.9172  165.0289 C.ar    1  UNL1        0.0902
     12 N         140.9176  142.9636  166.5280 N.ar    1  UNL1       -0.2328
     13 C         141.5232  141.8453  167.3234 C.ar    1  UNL1        0.1273
     14 N         141.6466  141.6166  168.8007 N.pl3   1  UNL1       -0.2937
     15 H         141.5533  140.0386  172.1285 H       1  UNL1        0.1233
     16 C         140.3376  144.0356  164.2336 C.3     1  UNL1        0.1875
     17 O         139.0032  144.5977  164.6254 O.3     1  UNL1       -0.3474
     18 C         137.7717  144.2063  163.8637 C.3     1  UNL1        0.1426
     19 C         137.7201  142.8900  163.1465 C.3     1  UNL1        0.0297
     20 C         137.9838  142.0676  161.9201 C.3     1  UNL1        0.0026
     21 C         137.3669  141.4321  163.1308 C.3     1  UNL1        0.0026
@<TRIPOS>BOND
     1     2     1    1
     2     2     3    1
     3     3     4    1
     4     4     5    1
     5     6     5    1
     6     6     7    1
     7     7     8    1
     8     8     9   ar
     9     9    10   ar
    10    10    11   ar
    11    11    16    1
    12    16    17    1
    13    17    18    1
    14    18    19    1
    15    19    20    1
    16    20    21    1
    17    11    12   ar
    18    12    13   ar
    19    13    14    1
    20    14     2    1
    21    14     6    1
    22    13     8   ar
    23    21    19    1
    24     4    15    1
@<TRIPOS>MOLECULE
*****
 21 24 0 0 0
SMALL
GASTEIGER

@<TRIPOS>ATOM
      1 C         140.3985  143.6380  169.7051 C.3     1  UNL1        0.0229
      2 C         141.1787  142.3795  169.9447 C.3     1  UNL1        0.0899
      3 C         141.5164  141.9616  171.3452 C.3     1  UNL1        0.0886
      4 N         142.2967  140.7032  171.5848 N.3     1  UNL1       -0.2947
      5 C         142.7393  139.8626  170.4240 C.3     1  UNL1        0.0889
      6 C         142.4016  140.2805  169.0236 C.3     1  UNL1        0.0942
      7 C         142.7003  139.6595  167.6912 C.3     1  UNL1        0.0503
      8 C         142.1046  140.5342  166.6281 C.ar    1  UNL1        0.0111
      9 C         142.0833  140.4230  165.1324 C.ar    1  UNL1       -0.0002
     10 C         141.3951  141.4734  164.3120 C.ar    1  UNL1        0.0170
     11 C         140.7283  142.6350  164.9874 C.ar    1  UNL1        0.0902
     12 N         140.7496  142.7461  166.4831 N.ar    1  UNL1       -0.2328
     13 C         141.4378  141.6957  167.3035 C.ar    1  UNL1        0.1273
     14 N         141.6213  141.5390  168.7839 N.pl3   1  UNL1       -0.2937
     15 H         141.7188  140.1066  172.1769 H       1  UNL1        0.1233
     16 C         140.0401  143.6854  164.1669 C.3     1  UNL1        0.1875
     17 O         140.2802  143.7588  162.6881 O.3     1  UNL1       -0.3474
     18 C         141.3721  144.6339  162.1481 C.3     1  UNL1        0.1426
     19 C         142.7167  144.6518  162.8126 C.3     1  UNL1        0.0297
     20 C         144.1369  144.1744  162.8841 C.3     1  UNL1        0.0026
     21 C         143.6254  145.1603  163.8924 C.3     1  UNL1        0.0026
@<TRIPOS>BOND
     1     2     1    1
     2     2     3    1
     3     3     4    1
     4     4     5    1
     5     6     5    1
     6     6     7    1
     7     7     8    1
     8     8     9   ar
     9     9    10   ar
    10    10    11   ar
    11    11    16    1
    12    16    17    1
    13    17    18    1
    14    18    19    1
    15    19    20    1
    16    20    21    1
    17    11    12   ar
    18    12    13   ar
    19    13    14    1
    20    14     2    1
    21    14     6    1
    22    13     8   ar
    23    21    19    1
    24     4    15    1
@<TRIPOS>MOLECULE
*****
 21 24 0 0 0
SMALL
GASTEIGER

@<TRIPOS>ATOM
      1 C         140.7397  144.3956  164.4076 C.3     1  UNL1        0.0229
      2 C         139.8335  143.7066  163.4308 C.3     1  UNL1        0.0899
      3 C         139.5930  144.3082  162.0779 C.3     1  UNL1        0.0886
      4 N         138.6869  143.6192  161.1011 N.3     1  UNL1       -0.2947
      5 C         138.0213  142.3287  161.4771 C.3     1  UNL1        0.0889
      6 C         138.2618  141.7271  162.8299 C.3     1  UNL1        0.0942
      7 C         137.7484  140.4752  163.4774 C.3     1  UNL1        0.0503
      8 C         138.3372  140.3905  164.8544 C.ar    1  UNL1        0.0111
      9 C         138.1878  139.3760  165.9492 C.ar    1  UNL1       -0.0002
     10 C         138.9158  139.5611  167.2476 C.ar    1  UNL1        0.0170
     11 C         139.7931  140.7606  167.4511 C.ar    1  UNL1        0.0902
     12 N         139.9424  141.7751  166.3563 N.ar    1  UNL1       -0.2328
     13 C         139.2145  141.5900  165.0579 C.ar    1  UNL1        0.1273
     14 N         139.1679  142.4161  163.8068 N.pl3   1  UNL1       -0.2937
     15 H         139.2420  143.4319  160.2661 H       1  UNL1        0.1233
     16 C         140.5211  140.9457  168.7496 C.3     1  UNL1        0.1875
     17 O         142.0110  140.7812  168.8041 O.3     1  UNL1       -0.3474
     18 C         142.6246  139.4293  168.5903 C.3     1  UNL1        0.1426
     19 C         142.8980  138.9413  167.1986 C.3     1  UNL1        0.0297
     20 C         143.8319  138.3304  166.1962 C.3     1  UNL1        0.0026
     21 C         142.4377  138.7069  165.7903 C.3     1  UNL1        0.0026
@<TRIPOS>BOND
     1     2     1    1
     2     2     3    1
     3     3     4    1
     4     4     5    1
     5     6     5    1
     6     6     7    1
     7     7     8    1
     8     8     9   ar
     9     9    10   ar
    10    10    11   ar
    11    11    16    1
    12    16    17    1
    13    17    18    1
    14    18    19    1
    15    19    20    1
    16    20    21    1
    17    11    12   ar
    18    12    13   ar
    19    13    14    1
    20    14     2    1
    21    14     6    1
    22    13     8   ar
    23    21    19    1
    24     4    15    1
