@<TRIPOS>MOLECULE
*****
 28 31 0 0 0
SMALL
GASTEIGER

@<TRIPOS>ATOM
      1 C         139.0588  140.5918  165.3262 C.3     1  UNL1        0.1911
      2 O         139.1384  141.5358  164.1633 O.3     1  UNL1       -0.3500
      3 C         139.9598  142.7866  164.2675 C.3     1  UNL1        0.1145
      4 C         140.7811  144.0374  164.3717 C.3     1  UNL1        0.0463
      5 C         140.8607  144.9814  163.2088 C.3     1  UNL1        0.0746
      6 N         140.1189  144.6746  161.9416 N.3     1  UNL1       -0.2722
      7 C         139.2976  143.4239  161.8374 C.3     1  UNL1        0.0746
      8 C         139.2180  142.4799  163.0003 C.3     1  UNL1        0.0463
      9 C         140.7016  143.0934  165.5346 C.3     1  UNL1        0.1254
     10 N         140.6219  142.1493  166.6976 N.am    1  UNL1       -0.2543
     11 C         139.8006  140.8985  166.5934 C.2     1  UNL1        0.2566
     12 O         139.7210  139.9544  167.7563 O.2     1  UNL1       -0.2719
     13 C         141.3637  142.4560  167.9647 C.ar    1  UNL1        0.0540
     14 C         140.6811  143.2044  169.0710 C.ar    1  UNL1        0.0149
     15 C         141.4229  143.5112  170.3381 C.ar    1  UNL1        0.0013
     16 C         142.8473  143.0695  170.4990 C.ar    1  UNL1        0.0001
     17 C         143.5300  142.3210  169.3927 C.ar    1  UNL1        0.0013
     18 C         142.7882  142.0143  168.1256 C.ar    1  UNL1        0.0149
     19 C         138.9026  138.0293  164.9266 C.3     1  UNL1        0.0031
     20 C         138.2374  139.3409  165.2220 C.3     1  UNL1        0.0390
     21 C         140.1986  145.6187  160.7786 C.3     1  UNL1        0.0768
     22 C         140.9644  145.2307  159.5487 C.3     1  UNL1        0.0437
     23 C         140.2535  145.0924  158.2350 C.ar    1  UNL1       -0.0208
     24 C         139.6582  143.7736  157.8396 C.ar    1  UNL1       -0.0042
     25 C         138.9474  143.6353  156.5260 C.ar    1  UNL1       -0.0003
     26 C         138.8319  144.8159  155.6078 C.ar    1  UNL1       -0.0000
     27 C         139.4272  146.1346  156.0032 C.ar    1  UNL1       -0.0003
     28 C         140.1380  146.2729  157.3168 C.ar    1  UNL1       -0.0042
@<TRIPOS>BOND
     1    19    20    1
     2    20     1    1
     3     1     2    1
     4     2     3    1
     5     3     4    1
     6     4     5    1
     7     5     6    1
     8     6    21    1
     9    21    22    1
    10    22    23    1
    11    23    24   ar
    12    24    25   ar
    13    25    26   ar
    14    26    27   ar
    15    27    28   ar
    16     6     7    1
    17     7     8    1
    18     3     9    1
    19     9    10    1
    20    10    13    1
    21    13    14   ar
    22    14    15   ar
    23    15    16   ar
    24    16    17   ar
    25    17    18   ar
    26    10    11   am
    27    11    12    2
    28    11     1    1
    29     8     3    1
    30    18    13   ar
    31    28    23   ar
@<TRIPOS>MOLECULE
*****
 28 31 0 0 0
SMALL
GASTEIGER

@<TRIPOS>ATOM
      1 C         138.4090  139.2795  166.7045 C.3     1  UNL1        0.1911
      2 O         138.5300  139.6380  165.2530 O.3     1  UNL1       -0.3500
      3 C         139.4994  140.6978  164.8204 C.3     1  UNL1        0.1145
      4 C         140.4688  141.7576  164.3880 C.3     1  UNL1        0.0463
      5 C         140.5898  142.1161  162.9365 C.3     1  UNL1        0.0746
      6 N         139.7414  141.4148  161.9175 N.3     1  UNL1       -0.2722
      7 C         138.7720  140.3550  162.3500 C.3     1  UNL1        0.0746
      8 C         138.6510  139.9965  163.8014 C.3     1  UNL1        0.0463
      9 C         140.3479  141.3991  165.8394 C.3     1  UNL1        0.1254
     10 N         140.2268  141.0406  167.2910 N.am    1  UNL1       -0.2543
     11 C         139.2574  139.9808  167.7234 C.2     1  UNL1        0.2566
     12 O         139.1364  139.6223  169.1750 O.2     1  UNL1       -0.2719
     13 C         141.0753  141.7419  168.3100 C.ar    1  UNL1        0.0540
     14 C         140.5102  142.8878  169.0958 C.ar    1  UNL1        0.0149
     15 C         141.3587  143.5891  170.1148 C.ar    1  UNL1        0.0013
     16 C         142.7721  143.1445  170.3479 C.ar    1  UNL1        0.0001
     17 C         143.3372  141.9985  169.5621 C.ar    1  UNL1        0.0013
     18 C         142.4888  141.2972  168.5431 C.ar    1  UNL1        0.0149
     19 C         137.5599  136.8265  166.5942 C.3     1  UNL1        0.0031
     20 C         137.4395  138.2197  167.1370 C.3     1  UNL1        0.0390
     21 C         139.8624  141.7733  160.4660 C.3     1  UNL1        0.0768
     22 C         140.9666  141.1860  159.6379 C.3     1  UNL1        0.0437
     23 C         141.9038  140.1820  160.2411 C.ar    1  UNL1       -0.0208
     24 C         143.2227  140.6280  160.7993 C.ar    1  UNL1       -0.0042
     25 C         144.1598  139.6241  161.4025 C.ar    1  UNL1       -0.0003
     26 C         143.7781  138.1742  161.4474 C.ar    1  UNL1       -0.0000
     27 C         142.4592  137.7282  160.8892 C.ar    1  UNL1       -0.0003
     28 C         141.5221  138.7321  160.2860 C.ar    1  UNL1       -0.0042
@<TRIPOS>BOND
     1    19    20    1
     2    20     1    1
     3     1     2    1
     4     2     3    1
     5     3     4    1
     6     4     5    1
     7     5     6    1
     8     6    21    1
     9    21    22    1
    10    22    23    1
    11    23    24   ar
    12    24    25   ar
    13    25    26   ar
    14    26    27   ar
    15    27    28   ar
    16     6     7    1
    17     7     8    1
    18     3     9    1
    19     9    10    1
    20    10    13    1
    21    13    14   ar
    22    14    15   ar
    23    15    16   ar
    24    16    17   ar
    25    17    18   ar
    26    10    11   am
    27    11    12    2
    28    11     1    1
    29     8     3    1
    30    18    13   ar
    31    28    23   ar
@<TRIPOS>MOLECULE
*****
 28 31 0 0 0
SMALL
GASTEIGER

@<TRIPOS>ATOM
      1 C         143.0861  139.5916  164.1084 C.3     1  UNL1        0.1911
      2 O         143.0246  138.9901  162.7357 O.3     1  UNL1       -0.3500
      3 C         142.0073  139.4786  161.7476 C.3     1  UNL1        0.1145
      4 C         140.9899  139.9671  160.7595 C.3     1  UNL1        0.0463
      5 C         140.9285  139.3656  159.3868 C.3     1  UNL1        0.0746
      6 N         141.8844  138.2755  159.0022 N.3     1  UNL1       -0.2722
      7 C         142.9018  137.7870  159.9903 C.3     1  UNL1        0.0746
      8 C         142.9632  138.3885  161.3629 C.3     1  UNL1        0.0463
      9 C         141.0513  140.5686  162.1322 C.3     1  UNL1        0.1254
     10 N         141.1128  141.1702  163.5050 N.am    1  UNL1       -0.2543
     11 C         142.1301  140.6817  164.4931 C.2     1  UNL1        0.2566
     12 O         142.1916  141.2832  165.8658 O.2     1  UNL1       -0.2719
     13 C         140.1569  142.2603  163.8897 C.ar    1  UNL1        0.0540
     14 C         138.7220  141.9321  164.1787 C.ar    1  UNL1        0.0149
     15 C         137.7661  143.0221  164.5633 C.ar    1  UNL1        0.0013
     16 C         138.2450  144.4404  164.6589 C.ar    1  UNL1        0.0001
     17 C         139.6799  144.7686  164.3699 C.ar    1  UNL1        0.0013
     18 C         140.6358  143.6786  163.9853 C.ar    1  UNL1        0.0149
     19 C         143.6839  138.2072  166.2242 C.3     1  UNL1        0.0031
     20 C         144.1035  139.1031  165.0966 C.3     1  UNL1        0.0390
     21 C         141.8230  137.6740  157.6294 C.3     1  UNL1        0.0768
     22 C         142.9460  136.8094  157.1385 C.3     1  UNL1        0.0437
     23 C         142.6759  135.3939  156.7219 C.ar    1  UNL1       -0.0208
     24 C         141.6597  135.1065  155.6567 C.ar    1  UNL1       -0.0042
     25 C         141.3897  133.6910  155.2402 C.ar    1  UNL1       -0.0003
     26 C         142.1358  132.5630  155.8888 C.ar    1  UNL1       -0.0000
     27 C         143.1521  132.8504  156.9540 C.ar    1  UNL1       -0.0003
     28 C         143.4221  134.2658  157.3705 C.ar    1  UNL1       -0.0042
@<TRIPOS>BOND
     1    19    20    1
     2    20     1    1
     3     1     2    1
     4     2     3    1
     5     3     4    1
     6     4     5    1
     7     5     6    1
     8     6    21    1
     9    21    22    1
    10    22    23    1
    11    23    24   ar
    12    24    25   ar
    13    25    26   ar
    14    26    27   ar
    15    27    28   ar
    16     6     7    1
    17     7     8    1
    18     3     9    1
    19     9    10    1
    20    10    13    1
    21    13    14   ar
    22    14    15   ar
    23    15    16   ar
    24    16    17   ar
    25    17    18   ar
    26    10    11   am
    27    11    12    2
    28    11     1    1
    29     8     3    1
    30    18    13   ar
    31    28    23   ar
@<TRIPOS>MOLECULE
*****
 28 31 0 0 0
SMALL
GASTEIGER

@<TRIPOS>ATOM
      1 C         139.0240  140.3805  165.6671 C.3     1  UNL1        0.1911
      2 O         139.1147  141.2230  164.4294 O.3     1  UNL1       -0.3500
      3 C         139.9658  142.4582  164.4236 C.3     1  UNL1        0.1145
      4 C         140.8168  143.6934  164.4178 C.3     1  UNL1        0.0463
      5 C         140.9075  144.5358  163.1801 C.3     1  UNL1        0.0746
      6 N         140.1472  144.1431  161.9481 N.3     1  UNL1       -0.2722
      7 C         139.2962  142.9079  161.9539 C.3     1  UNL1        0.0746
      8 C         139.2055  142.0655  163.1916 C.3     1  UNL1        0.0463
      9 C         140.7261  142.8509  165.6555 C.3     1  UNL1        0.1254
     10 N         140.6353  142.0084  166.8933 N.am    1  UNL1       -0.2543
     11 C         139.7843  140.7732  166.8990 C.2     1  UNL1        0.2566
     12 O         139.6936  139.9307  168.1368 O.2     1  UNL1       -0.2719
     13 C         141.3956  142.4011  168.1252 C.ar    1  UNL1        0.0540
     14 C         140.7404  143.2537  169.1710 C.ar    1  UNL1        0.0149
     15 C         141.5007  143.6464  170.4030 C.ar    1  UNL1        0.0013
     16 C         142.9162  143.1865  170.5892 C.ar    1  UNL1        0.0001
     17 C         143.5716  142.3339  169.5433 C.ar    1  UNL1        0.0013
     18 C         142.8113  141.9412  168.3114 C.ar    1  UNL1        0.0149
     19 C         138.7648  137.8249  165.2775 C.3     1  UNL1        0.0031
     20 C         138.1730  139.1453  165.6729 C.3     1  UNL1        0.0390
     21 C         140.2380  144.9856  160.7104 C.3     1  UNL1        0.0768
     22 C         141.3952  144.8166  159.7712 C.3     1  UNL1        0.0437
     23 C         142.1030  143.4969  159.6830 C.ar    1  UNL1       -0.0208
     24 C         143.2775  143.2149  160.5723 C.ar    1  UNL1       -0.0042
     25 C         143.9852  141.8953  160.4841 C.ar    1  UNL1       -0.0003
     26 C         143.5184  140.8578  159.5066 C.ar    1  UNL1       -0.0000
     27 C         142.3438  141.1398  158.6173 C.ar    1  UNL1       -0.0003
     28 C         141.6362  142.4594  158.7055 C.ar    1  UNL1       -0.0042
@<TRIPOS>BOND
     1    19    20    1
     2    20     1    1
     3     1     2    1
     4     2     3    1
     5     3     4    1
     6     4     5    1
     7     5     6    1
     8     6    21    1
     9    21    22    1
    10    22    23    1
    11    23    24   ar
    12    24    25   ar
    13    25    26   ar
    14    26    27   ar
    15    27    28   ar
    16     6     7    1
    17     7     8    1
    18     3     9    1
    19     9    10    1
    20    10    13    1
    21    13    14   ar
    22    14    15   ar
    23    15    16   ar
    24    16    17   ar
    25    17    18   ar
    26    10    11   am
    27    11    12    2
    28    11     1    1
    29     8     3    1
    30    18    13   ar
    31    28    23   ar
@<TRIPOS>MOLECULE
*****
 28 31 0 0 0
SMALL
GASTEIGER

@<TRIPOS>ATOM
      1 C         138.7805  139.5461  166.3779 C.3     1  UNL1        0.1911
      2 O         139.0058  139.9702  164.9569 O.3     1  UNL1       -0.3500
      3 C         140.0191  141.0307  164.6424 C.3     1  UNL1        0.1145
      4 C         141.0322  142.0911  164.3279 C.3     1  UNL1        0.0463
      5 C         141.2575  142.5153  162.9069 C.3     1  UNL1        0.0746
      6 N         140.4697  141.8790  161.8004 N.3     1  UNL1       -0.2722
      7 C         139.4565  140.8186  162.1148 C.3     1  UNL1        0.0746
      8 C         139.2312  140.3944  163.5358 C.3     1  UNL1        0.0463
      9 C         140.8069  141.6669  165.7489 C.3     1  UNL1        0.1254
     10 N         140.5816  141.2427  167.1700 N.am    1  UNL1       -0.2543
     11 C         139.5684  140.1823  167.4844 C.2     1  UNL1        0.2566
     12 O         139.3430  139.7581  168.9055 O.2     1  UNL1       -0.2719
     13 C         141.3694  141.8790  168.2765 C.ar    1  UNL1        0.0540
     14 C         140.7555  142.9696  169.1032 C.ar    1  UNL1        0.0149
     15 C         141.5434  143.6059  170.2097 C.ar    1  UNL1        0.0013
     16 C         142.9452  143.1515  170.4896 C.ar    1  UNL1        0.0001
     17 C         143.5592  142.0607  169.6629 C.ar    1  UNL1        0.0013
     18 C         142.7713  141.4245  168.5564 C.ar    1  UNL1        0.0149
     19 C         137.9770  137.0811  166.2093 C.3     1  UNL1        0.0031
     20 C         137.7673  138.4856  166.6924 C.3     1  UNL1        0.0390
     21 C         140.6950  142.3033  160.3793 C.3     1  UNL1        0.0768
     22 C         139.7687  143.2922  159.7360 C.3     1  UNL1        0.0437
     23 C         140.2575  144.1558  158.6111 C.ar    1  UNL1       -0.0208
     24 C         141.4665  145.0229  158.8020 C.ar    1  UNL1       -0.0042
     25 C         141.9552  145.8865  157.6772 C.ar    1  UNL1       -0.0003
     26 C         141.2349  145.8831  156.3615 C.ar    1  UNL1       -0.0000
     27 C         140.0260  145.0160  156.1705 C.ar    1  UNL1       -0.0003
     28 C         139.5372  144.1524  157.2953 C.ar    1  UNL1       -0.0042
@<TRIPOS>BOND
     1    19    20    1
     2    20     1    1
     3     1     2    1
     4     2     3    1
     5     3     4    1
     6     4     5    1
     7     5     6    1
     8     6    21    1
     9    21    22    1
    10    22    23    1
    11    23    24   ar
    12    24    25   ar
    13    25    26   ar
    14    26    27   ar
    15    27    28   ar
    16     6     7    1
    17     7     8    1
    18     3     9    1
    19     9    10    1
    20    10    13    1
    21    13    14   ar
    22    14    15   ar
    23    15    16   ar
    24    16    17   ar
    25    17    18   ar
    26    10    11   am
    27    11    12    2
    28    11     1    1
    29     8     3    1
    30    18    13   ar
    31    28    23   ar
@<TRIPOS>MOLECULE
*****
 28 31 0 0 0
SMALL
GASTEIGER

@<TRIPOS>ATOM
      1 C         143.9085  139.9434  163.3908 C.3     1  UNL1        0.1911
      2 O         143.7554  139.7855  161.9070 O.3     1  UNL1       -0.3500
      3 C         142.4382  139.3580  161.3303 C.3     1  UNL1        0.1145
      4 C         141.1212  138.9306  160.7536 C.3     1  UNL1        0.0463
      5 C         140.9680  138.7727  159.2698 C.3     1  UNL1        0.0746
      6 N         142.1319  139.0423  158.3628 N.3     1  UNL1       -0.2722
      7 C         143.4489  139.4697  158.9395 C.3     1  UNL1        0.0746
      8 C         143.6021  139.6276  160.4232 C.3     1  UNL1        0.0463
      9 C         141.2744  139.0885  162.2373 C.3     1  UNL1        0.1254
     10 N         141.4276  139.2464  163.7212 N.am    1  UNL1       -0.2543
     11 C         142.7447  139.6738  164.2978 C.2     1  UNL1        0.2566
     12 O         142.8979  139.8317  165.7817 O.2     1  UNL1       -0.2719
     13 C         140.2637  138.9768  164.6282 C.ar    1  UNL1        0.0540
     14 C         139.6333  140.1021  165.3939 C.ar    1  UNL1        0.0149
     15 C         138.4694  139.8325  166.3010 C.ar    1  UNL1        0.0013
     16 C         137.9360  138.4378  166.4423 C.ar    1  UNL1        0.0001
     17 C         138.5664  137.3124  165.6766 C.ar    1  UNL1        0.0013
     18 C         139.7303  137.5820  164.7695 C.ar    1  UNL1        0.0149
     19 C         145.7281  141.7652  163.7372 C.3     1  UNL1        0.0031
     20 C         145.2256  140.3708  163.9676 C.3     1  UNL1        0.0390
     21 C         141.9786  138.8843  156.8789 C.3     1  UNL1        0.0768
     22 C         141.1318  137.7766  156.3261 C.3     1  UNL1        0.0437
     23 C         141.7465  136.4422  156.0233 C.ar    1  UNL1       -0.0208
     24 C         140.9594  135.4058  155.2775 C.ar    1  UNL1       -0.0042
     25 C         141.5741  134.0714  154.9748 C.ar    1  UNL1       -0.0003
     26 C         142.9758  133.7735  155.4179 C.ar    1  UNL1       -0.0000
     27 C         143.7629  134.8099  156.1638 C.ar    1  UNL1       -0.0003
     28 C         143.1482  136.1443  156.4665 C.ar    1  UNL1       -0.0042
@<TRIPOS>BOND
     1    19    20    1
     2    20     1    1
     3     1     2    1
     4     2     3    1
     5     3     4    1
     6     4     5    1
     7     5     6    1
     8     6    21    1
     9    21    22    1
    10    22    23    1
    11    23    24   ar
    12    24    25   ar
    13    25    26   ar
    14    26    27   ar
    15    27    28   ar
    16     6     7    1
    17     7     8    1
    18     3     9    1
    19     9    10    1
    20    10    13    1
    21    13    14   ar
    22    14    15   ar
    23    15    16   ar
    24    16    17   ar
    25    17    18   ar
    26    10    11   am
    27    11    12    2
    28    11     1    1
    29     8     3    1
    30    18    13   ar
    31    28    23   ar
@<TRIPOS>MOLECULE
*****
 28 31 0 0 0
SMALL
GASTEIGER

@<TRIPOS>ATOM
      1 C         142.5193  139.0446  165.8214 C.3     1  UNL1        0.1911
      2 O         141.5994  138.9593  164.6398 O.3     1  UNL1       -0.3500
      3 C         140.2784  139.6697  164.6648 C.3     1  UNL1        0.1145
      4 C         138.9576  140.3801  164.6898 C.3     1  UNL1        0.0463
      5 C         138.0376  140.2947  163.5082 C.3     1  UNL1        0.0746
      6 N         138.4385  139.4990  162.3015 N.3     1  UNL1       -0.2722
      7 C         139.7593  138.7886  162.2765 C.3     1  UNL1        0.0746
      8 C         140.6793  138.8739  163.4581 C.3     1  UNL1        0.0463
      9 C         139.8776  140.4655  165.8715 C.3     1  UNL1        0.1254
     10 N         140.7977  140.5508  167.0531 N.am    1  UNL1       -0.2543
     11 C         142.1185  139.8404  167.0281 C.2     1  UNL1        0.2566
     12 O         143.0386  139.9258  168.2098 O.2     1  UNL1       -0.2719
     13 C         140.3968  141.3466  168.2598 C.ar    1  UNL1        0.0540
     14 C         140.8168  142.7811  168.3856 C.ar    1  UNL1        0.0149
     15 C         140.4159  143.5769  169.5923 C.ar    1  UNL1        0.0013
     16 C         139.5951  142.9382  170.6731 C.ar    1  UNL1        0.0001
     17 C         139.1751  141.5036  170.5474 C.ar    1  UNL1        0.0013
     18 C         139.5760  140.7079  169.3407 C.ar    1  UNL1        0.0149
     19 C         144.9908  138.9168  165.0303 C.3     1  UNL1        0.0031
     20 C         143.8403  138.3342  165.7964 C.3     1  UNL1        0.0390
     21 C         137.5184  139.4136  161.1199 C.3     1  UNL1        0.0768
     22 C         137.8798  140.1012  159.8367 C.3     1  UNL1        0.0437
     23 C         138.8990  141.2019  159.8368 C.ar    1  UNL1       -0.0208
     24 C         140.2383  140.9840  159.1974 C.ar    1  UNL1       -0.0042
     25 C         141.2573  142.0846  159.1976 C.ar    1  UNL1       -0.0003
     26 C         140.9372  143.4032  159.8371 C.ar    1  UNL1       -0.0000
     27 C         139.5979  143.6210  160.4766 C.ar    1  UNL1       -0.0003
     28 C         138.5788  142.5204  160.4764 C.ar    1  UNL1       -0.0042
@<TRIPOS>BOND
     1    19    20    1
     2    20     1    1
     3     1     2    1
     4     2     3    1
     5     3     4    1
     6     4     5    1
     7     5     6    1
     8     6    21    1
     9    21    22    1
    10    22    23    1
    11    23    24   ar
    12    24    25   ar
    13    25    26   ar
    14    26    27   ar
    15    27    28   ar
    16     6     7    1
    17     7     8    1
    18     3     9    1
    19     9    10    1
    20    10    13    1
    21    13    14   ar
    22    14    15   ar
    23    15    16   ar
    24    16    17   ar
    25    17    18   ar
    26    10    11   am
    27    11    12    2
    28    11     1    1
    29     8     3    1
    30    18    13   ar
    31    28    23   ar
@<TRIPOS>MOLECULE
*****
 28 31 0 0 0
SMALL
GASTEIGER

@<TRIPOS>ATOM
      1 C         138.9084  143.4919  163.7935 C.3     1  UNL1        0.1911
      2 O         139.4742  144.0879  162.5387 O.3     1  UNL1       -0.3500
      3 C         140.3889  143.2769  161.6694 C.3     1  UNL1        0.1145
      4 C         141.3036  142.4659  160.8001 C.3     1  UNL1        0.0463
      5 C         141.8694  143.0619  159.5453 C.3     1  UNL1        0.0746
      6 N         141.5205  144.4689  159.1597 N.3     1  UNL1       -0.2722
      7 C         140.6059  145.2799  160.0289 C.3     1  UNL1        0.0746
      8 C         140.0401  144.6839  161.2838 C.3     1  UNL1        0.0463
      9 C         140.7378  141.8699  162.0549 C.3     1  UNL1        0.1254
     10 N         140.1720  141.2740  163.3098 N.am    1  UNL1       -0.2543
     11 C         139.2573  142.0850  164.1791 C.2     1  UNL1        0.2566
     12 O         138.6914  141.4890  165.4340 O.2     1  UNL1       -0.2719
     13 C         140.5208  139.8670  163.6954 C.ar    1  UNL1        0.0540
     14 C         139.7667  138.7165  163.0975 C.ar    1  UNL1        0.0149
     15 C         140.1155  137.3095  163.4831 C.ar    1  UNL1        0.0013
     16 C         141.2186  137.0530  164.4666 C.ar    1  UNL1        0.0001
     17 C         141.9728  138.2035  165.0646 C.ar    1  UNL1        0.0013
     18 C         141.6240  139.6105  164.6790 C.ar    1  UNL1        0.0149
     19 C         138.5465  145.0552  165.8369 C.3     1  UNL1        0.0031
     20 C         137.9937  144.3029  164.6628 C.3     1  UNL1        0.0390
     21 C         142.0864  145.0649  157.9048 C.3     1  UNL1        0.0768
     22 C         141.3645  144.8933  156.6013 C.3     1  UNL1        0.0437
     23 C         140.6552  146.0587  155.9776 C.ar    1  UNL1       -0.0208
     24 C         140.9753  146.4654  154.5698 C.ar    1  UNL1       -0.0042
     25 C         140.2660  147.6308  153.9462 C.ar    1  UNL1       -0.0003
     26 C         139.2367  148.3894  154.7304 C.ar    1  UNL1       -0.0000
     27 C         138.9166  147.9826  156.1383 C.ar    1  UNL1       -0.0003
     28 C         139.6259  146.8173  156.7619 C.ar    1  UNL1       -0.0042
@<TRIPOS>BOND
     1    19    20    1
     2    20     1    1
     3     1     2    1
     4     2     3    1
     5     3     4    1
     6     4     5    1
     7     5     6    1
     8     6    21    1
     9    21    22    1
    10    22    23    1
    11    23    24   ar
    12    24    25   ar
    13    25    26   ar
    14    26    27   ar
    15    27    28   ar
    16     6     7    1
    17     7     8    1
    18     3     9    1
    19     9    10    1
    20    10    13    1
    21    13    14   ar
    22    14    15   ar
    23    15    16   ar
    24    16    17   ar
    25    17    18   ar
    26    10    11   am
    27    11    12    2
    28    11     1    1
    29     8     3    1
    30    18    13   ar
    31    28    23   ar
@<TRIPOS>MOLECULE
*****
 28 31 0 0 0
SMALL
GASTEIGER

@<TRIPOS>ATOM
      1 C         142.1266  143.9194  159.8852 C.3     1  UNL1        0.1911
      2 O         142.2286  143.1719  161.1817 O.3     1  UNL1       -0.3500
      3 C         143.1941  142.0318  161.3162 C.3     1  UNL1        0.1145
      4 C         144.1596  140.8918  161.4507 C.3     1  UNL1        0.0463
      5 C         144.2616  140.1444  162.7472 C.3     1  UNL1        0.0746
      6 N         143.3980  140.5369  163.9092 N.3     1  UNL1       -0.2722
      7 C         142.4325  141.6769  163.7747 C.3     1  UNL1        0.0746
      8 C         142.3305  142.4244  162.4782 C.3     1  UNL1        0.0463
      9 C         144.0577  141.6393  160.1543 C.3     1  UNL1        0.1254
     10 N         143.9557  142.3868  158.8578 N.am    1  UNL1       -0.2543
     11 C         142.9902  143.5268  158.7233 C.2     1  UNL1        0.2566
     12 O         142.8882  144.2744  157.4267 O.2     1  UNL1       -0.2719
     13 C         144.8193  141.9943  157.6958 C.ar    1  UNL1        0.0540
     14 C         146.1666  142.6282  157.5148 C.ar    1  UNL1        0.0149
     15 C         147.0302  142.2356  156.3529 C.ar    1  UNL1        0.0013
     16 C         146.5465  141.2092  155.3719 C.ar    1  UNL1        0.0001
     17 C         145.1991  140.5752  155.5528 C.ar    1  UNL1        0.0013
     18 C         144.3355  140.9678  156.7148 C.ar    1  UNL1        0.0149
     19 C         140.4245  145.5647  160.9557 C.3     1  UNL1        0.0031
     20 C         141.1611  145.0594  159.7507 C.3     1  UNL1        0.0390
     21 C         143.4999  139.7894  165.2057 C.3     1  UNL1        0.0768
     22 C         142.7178  138.5253  165.4061 C.3     1  UNL1        0.0437
     23 C         141.2321  138.5859  165.6042 C.ar    1  UNL1       -0.0208
     24 C         140.6348  139.6486  166.4782 C.ar    1  UNL1       -0.0042
     25 C         139.1492  139.7092  166.6763 C.ar    1  UNL1       -0.0003
     26 C         138.2609  138.7071  166.0004 C.ar    1  UNL1       -0.0000
     27 C         138.8582  137.6445  165.1264 C.ar    1  UNL1       -0.0003
     28 C         140.3438  137.5839  164.9283 C.ar    1  UNL1       -0.0042
@<TRIPOS>BOND
     1    19    20    1
     2    20     1    1
     3     1     2    1
     4     2     3    1
     5     3     4    1
     6     4     5    1
     7     5     6    1
     8     6    21    1
     9    21    22    1
    10    22    23    1
    11    23    24   ar
    12    24    25   ar
    13    25    26   ar
    14    26    27   ar
    15    27    28   ar
    16     6     7    1
    17     7     8    1
    18     3     9    1
    19     9    10    1
    20    10    13    1
    21    13    14   ar
    22    14    15   ar
    23    15    16   ar
    24    16    17   ar
    25    17    18   ar
    26    10    11   am
    27    11    12    2
    28    11     1    1
    29     8     3    1
    30    18    13   ar
    31    28    23   ar
