@<TRIPOS>MOLECULE
*****
 40 45 0 0 0
SMALL
GASTEIGER

@<TRIPOS>ATOM
      1 C         137.8674  142.9730  162.9988 C.3     1  UNL1        0.0956
      2 C         137.6670  141.8073  163.9213 C.3     1  UNL1        0.0287
      3 C         137.6637  140.4104  163.3750 C.3     1  UNL1        0.0193
      4 C         137.8609  140.1791  161.9061 C.3     1  UNL1        0.0700
      5 C         138.0614  141.3447  160.9835 C.3     1  UNL1        0.0193
      6 C         138.0647  142.7417  161.5300 C.3     1  UNL1        0.0287
      7 C         137.8705  140.9626  162.1590 C.3     1  UNL1        0.1562
      8 O         137.8734  142.2258  162.6530 O.3     1  UNL1       -0.3571
      9 N         137.8577  138.7822  161.3597 N.3     1  UNL1       -0.2926
     10 H         137.3096  138.8036  160.4997 H       1  UNL1        0.1236
     11 C         139.1537  138.1026  161.0304 C.3     1  UNL1        0.1152
     12 C         140.3396  138.2712  161.9333 C.ar    1  UNL1        0.0765
     13 C         140.4616  137.4378  163.1746 C.ar    1  UNL1        0.0193
     14 C         141.6475  137.6064  164.0775 C.ar    1  UNL1        0.0411
     15 C         142.7113  138.6083  163.7393 C.ar    1  UNL1        0.1708
     16 C         142.5893  139.4416  162.4981 C.ar    1  UNL1        0.1682
     17 N         141.4034  139.2731  161.5951 N.ar    1  UNL1       -0.2304
     18 N         143.6532  140.4435  162.1598 N.am    1  UNL1       -0.2639
     19 C         144.8390  140.6121  163.0627 C.2     1  UNL1        0.2718
     20 O         145.9028  141.6140  162.7244 O.2     1  UNL1       -0.2707
     21 C         144.9610  139.7788  164.3040 C.3     1  UNL1        0.2898
     22 O         143.8972  138.7768  164.6423 O.3     1  UNL1       -0.4628
     23 H         143.5731  140.9905  161.3451 H       1  UNL1        0.1565
     24 C         137.8707  144.3699  163.5451 C.3     1  UNL1        0.0611
     25 C         138.8887  144.7717  164.5710 C.3     1  UNL1        0.1388
     26 O         138.4591  145.5067  165.8061 O.3     1  UNL1       -0.3798
     27 H         137.4987  145.6410  165.7848 H       1  UNL1        0.2108
     28 C         140.9681  141.9226  167.3654 C.ar    1  UNL1        0.2250
     29 C         142.4155  141.5893  167.1563 C.ar    1  UNL1        0.0593
     30 C         143.1699  142.2058  166.0157 C.ar    1  UNL1        0.0254
     31 C         142.4768  143.1555  165.0843 C.ar    1  UNL1        0.0991
     32 N         143.2311  143.7719  163.9437 N.ar    1  UNL1       -0.2400
     33 C         142.5380  144.7216  163.0122 C.ar    1  UNL1        0.1282
     34 C         141.0905  145.0549  163.2213 C.ar    1  UNL1        0.1589
     35 F         140.3974  146.0046  162.2899 F       1  UNL1       -0.2027
     36 C         140.3361  144.4385  164.3619 C.ar    1  UNL1        0.0526
     37 C         141.0293  143.4887  165.2934 C.ar    1  UNL1        0.1024
     38 N         140.2750  142.8723  166.4340 N.ar    1  UNL1       -0.2103
     39 C         139.5154  139.9917  168.3201 C.3     1  UNL1        0.2542
     40 O         140.2137  141.3061  168.5060 O.3     1  UNL1       -0.4561
@<TRIPOS>BOND
     1    39    40    1
     2    40    28    1
     3    28    29   ar
     4    29    30   ar
     5    30    31   ar
     6    31    32   ar
     7    32    33   ar
     8    33    34   ar
     9    34    35    1
    10    34    36   ar
    11    36    25    1
    12    25    26    1
    13    25    24    1
    14    24     1    1
    15     1     2    1
    16     2     3    1
    17     3     4    1
    18     4     9    1
    19     9    11    1
    20    11    12    1
    21    12    13   ar
    22    13    14   ar
    23    14    15   ar
    24    15    16   ar
    25    16    17   ar
    26    16    18    1
    27    18    19   am
    28    19    20    2
    29    19    21    1
    30    21    22    1
    31     4     5    1
    32     5     6    1
    33     4     7    1
    34     7     8    1
    35    36    37   ar
    36    37    38   ar
    37    38    28   ar
    38    37    31   ar
    39     6     1    1
    40     8     1    1
    41    17    12   ar
    42    22    15    1
    43    26    27    1
    44     9    10    1
    45    18    23    1
@<TRIPOS>MOLECULE
*****
 40 45 0 0 0
SMALL
GASTEIGER

@<TRIPOS>ATOM
      1 C         142.1345  138.3220  162.5086 C.3     1  UNL1        0.0956
      2 C         142.7113  139.0654  161.3404 C.3     1  UNL1        0.0287
      3 C         143.8974  139.9629  161.5342 C.3     1  UNL1        0.0193
      4 C         144.5068  140.1170  162.8963 C.3     1  UNL1        0.0700
      5 C         143.9300  139.3736  164.0644 C.3     1  UNL1        0.0193
      6 C         142.7438  138.4760  163.8706 C.3     1  UNL1        0.0287
      7 C         143.8576  139.6138  162.8392 C.3     1  UNL1        0.1562
      8 O         142.7851  138.8023  162.6640 O.3     1  UNL1       -0.3571
      9 N         145.6929  141.0145  163.0900 N.3     1  UNL1       -0.2926
     10 H         146.1233  141.1358  162.1733 H       1  UNL1        0.1236
     11 C         145.5087  142.3868  163.6669 C.3     1  UNL1        0.1152
     12 C         144.2201  143.1239  163.4523 C.ar    1  UNL1        0.0765
     13 C         143.3417  143.4553  164.6223 C.ar    1  UNL1        0.0193
     14 C         142.0531  144.1924  164.4076 C.ar    1  UNL1        0.0411
     15 C         141.6427  144.5980  163.0230 C.ar    1  UNL1        0.1708
     16 C         142.5210  144.2666  161.8531 C.ar    1  UNL1        0.1682
     17 N         143.8097  143.5295  162.0677 N.ar    1  UNL1       -0.2304
     18 N         142.1106  144.6722  160.4685 N.am    1  UNL1       -0.2639
     19 C         140.8219  145.4093  160.2539 C.2     1  UNL1        0.2718
     20 O         140.4115  145.8149  158.8693 O.2     1  UNL1       -0.2707
     21 C         139.9436  145.7407  161.4239 C.3     1  UNL1        0.2898
     22 O         140.3540  145.3351  162.8084 O.3     1  UNL1       -0.4628
     23 H         142.6870  144.4547  159.7007 H       1  UNL1        0.1565
     24 C         140.9484  137.4245  162.3148 C.3     1  UNL1        0.0611
     25 C         139.5622  137.9971  162.3419 C.3     1  UNL1        0.1388
     26 O         138.6263  137.7503  161.1959 O.3     1  UNL1       -0.3798
     27 H         139.0710  137.2071  160.5265 H       1  UNL1        0.2108
     28 C         138.1970  142.2411  161.7305 C.ar    1  UNL1        0.2250
     29 C         137.7467  143.0604  162.9035 C.ar    1  UNL1        0.0593
     30 C         137.7515  142.4651  164.2803 C.ar    1  UNL1        0.0254
     31 C         138.2066  141.0504  164.4841 C.ar    1  UNL1        0.0991
     32 N         138.2115  140.4551  165.8609 N.ar    1  UNL1       -0.2400
     33 C         138.6665  139.0404  166.0647 C.ar    1  UNL1        0.1282
     34 C         139.1168  138.2210  164.8917 C.ar    1  UNL1        0.1589
     35 F         139.5719  136.8063  165.0955 F       1  UNL1       -0.2027
     36 C         139.1120  138.8164  163.5149 C.ar    1  UNL1        0.0526
     37 C         138.6569  140.2311  163.3111 C.ar    1  UNL1        0.1024
     38 N         138.6520  140.8265  161.9343 N.ar    1  UNL1       -0.2103
     39 C         139.0642  142.2536  159.2815 C.3     1  UNL1        0.2542
     40 O         138.1921  142.8365  160.3538 O.3     1  UNL1       -0.4561
@<TRIPOS>BOND
     1    39    40    1
     2    40    28    1
     3    28    29   ar
     4    29    30   ar
     5    30    31   ar
     6    31    32   ar
     7    32    33   ar
     8    33    34   ar
     9    34    35    1
    10    34    36   ar
    11    36    25    1
    12    25    26    1
    13    25    24    1
    14    24     1    1
    15     1     2    1
    16     2     3    1
    17     3     4    1
    18     4     9    1
    19     9    11    1
    20    11    12    1
    21    12    13   ar
    22    13    14   ar
    23    14    15   ar
    24    15    16   ar
    25    16    17   ar
    26    16    18    1
    27    18    19   am
    28    19    20    2
    29    19    21    1
    30    21    22    1
    31     4     5    1
    32     5     6    1
    33     4     7    1
    34     7     8    1
    35    36    37   ar
    36    37    38   ar
    37    38    28   ar
    38    37    31   ar
    39     6     1    1
    40     8     1    1
    41    17    12   ar
    42    22    15    1
    43    26    27    1
    44     9    10    1
    45    18    23    1
@<TRIPOS>MOLECULE
*****
 40 45 0 0 0
SMALL
GASTEIGER

@<TRIPOS>ATOM
      1 C         143.7781  139.1125  163.7537 C.3     1  UNL1        0.0956
      2 C         142.8320  138.7527  164.8607 C.3     1  UNL1        0.0287
      3 C         141.5530  138.0332  164.5500 C.3     1  UNL1        0.0193
      4 C         141.2201  137.6735  163.1323 C.3     1  UNL1        0.0700
      5 C         142.1662  138.0334  162.0253 C.3     1  UNL1        0.0193
      6 C         143.4452  138.7529  162.3360 C.3     1  UNL1        0.0287
      7 C         141.9327  138.0677  163.2535 C.3     1  UNL1        0.1562
      8 O         143.0892  138.7183  163.5344 O.3     1  UNL1       -0.3571
      9 N         139.9411  136.9541  162.8216 N.3     1  UNL1       -0.2926
     10 H         139.9585  136.0815  163.3495 H       1  UNL1        0.1236
     11 C         138.6229  137.6089  163.1106 C.3     1  UNL1        0.1152
     12 C         138.4287  139.0665  162.8147 C.ar    1  UNL1        0.0765
     13 C         138.1245  139.5138  161.4156 C.ar    1  UNL1        0.0193
     14 C         137.9303  140.9714  161.1197 C.ar    1  UNL1        0.0411
     15 C         138.0403  141.9818  162.2229 C.ar    1  UNL1        0.1708
     16 C         138.3445  141.5346  163.6219 C.ar    1  UNL1        0.1682
     17 N         138.5388  140.0769  163.9178 N.ar    1  UNL1       -0.2304
     18 N         138.4546  142.5450  164.7251 N.am    1  UNL1       -0.2639
     19 C         138.2603  144.0026  164.4292 C.2     1  UNL1        0.2718
     20 O         138.3704  145.0130  165.5324 O.2     1  UNL1       -0.2707
     21 C         137.9561  144.4499  163.0301 C.3     1  UNL1        0.2898
     22 O         137.8461  143.4395  161.9269 O.3     1  UNL1       -0.4628
     23 H         138.6542  142.2514  165.6433 H       1  UNL1        0.1565
     24 C         145.0570  139.8320  164.0644 C.3     1  UNL1        0.0611
     25 C         145.2448  141.2530  163.6219 C.3     1  UNL1        0.1388
     26 O         146.6230  141.7764  163.3451 O.3     1  UNL1       -0.3798
     27 H         147.2730  141.0731  163.4995 H       1  UNL1        0.2108
     28 C         143.9856  142.5846  159.5120 C.ar    1  UNL1        0.2250
     29 C         142.7952  143.4820  159.3463 C.ar    1  UNL1        0.0593
     30 C         142.0245  143.9357  160.5506 C.ar    1  UNL1        0.0254
     31 C         142.4443  143.4918  161.9206 C.ar    1  UNL1        0.0991
     32 N         141.6736  143.9454  163.1249 N.ar    1  UNL1       -0.2400
     33 C         142.0933  143.5016  164.4948 C.ar    1  UNL1        0.1282
     34 C         143.2837  142.6041  164.6605 C.ar    1  UNL1        0.1589
     35 F         143.7035  142.1602  166.0305 F       1  UNL1       -0.2027
     36 C         144.0544  142.1504  163.4562 C.ar    1  UNL1        0.0526
     37 C         143.6346  142.5943  162.0862 C.ar    1  UNL1        0.1024
     38 N         144.4053  142.1407  160.8819 N.ar    1  UNL1       -0.2103
     39 C         144.3659  140.8676  157.5996 C.3     1  UNL1        0.2542
     40 O         144.7563  142.1309  158.3077 O.3     1  UNL1       -0.4561
@<TRIPOS>BOND
     1    39    40    1
     2    40    28    1
     3    28    29   ar
     4    29    30   ar
     5    30    31   ar
     6    31    32   ar
     7    32    33   ar
     8    33    34   ar
     9    34    35    1
    10    34    36   ar
    11    36    25    1
    12    25    26    1
    13    25    24    1
    14    24     1    1
    15     1     2    1
    16     2     3    1
    17     3     4    1
    18     4     9    1
    19     9    11    1
    20    11    12    1
    21    12    13   ar
    22    13    14   ar
    23    14    15   ar
    24    15    16   ar
    25    16    17   ar
    26    16    18    1
    27    18    19   am
    28    19    20    2
    29    19    21    1
    30    21    22    1
    31     4     5    1
    32     5     6    1
    33     4     7    1
    34     7     8    1
    35    36    37   ar
    36    37    38   ar
    37    38    28   ar
    38    37    31   ar
    39     6     1    1
    40     8     1    1
    41    17    12   ar
    42    22    15    1
    43    26    27    1
    44     9    10    1
    45    18    23    1
@<TRIPOS>MOLECULE
*****
 40 45 0 0 0
SMALL
GASTEIGER

@<TRIPOS>ATOM
      1 C         142.6599  144.4082  163.3350 C.3     1  UNL1        0.0956
      2 C         141.4480  144.6816  164.1755 C.3     1  UNL1        0.0287
      3 C         140.0767  144.5109  163.5923 C.3     1  UNL1        0.0193
      4 C         139.9171  144.0668  162.1684 C.3     1  UNL1        0.0700
      5 C         141.1290  143.7933  161.3279 C.3     1  UNL1        0.0193
      6 C         142.5004  143.9641  161.9111 C.3     1  UNL1        0.0287
      7 C         140.6889  144.1464  162.4440 C.3     1  UNL1        0.1562
      8 O         141.9290  144.3007  162.9714 O.3     1  UNL1       -0.3571
      9 N         138.5458  143.8961  161.5852 N.3     1  UNL1       -0.2926
     10 H         138.4553  144.5854  160.8389 H       1  UNL1        0.1236
     11 C         138.1362  142.5744  161.0060 C.3     1  UNL1        0.1152
     12 C         138.3548  141.3130  161.7876 C.ar    1  UNL1        0.0765
     13 C         138.9152  140.0980  161.1094 C.ar    1  UNL1        0.0193
     14 C         139.1337  138.8365  161.8910 C.ar    1  UNL1        0.0411
     15 C         138.7919  138.7900  163.3508 C.ar    1  UNL1        0.1708
     16 C         138.2316  140.0049  164.0290 C.ar    1  UNL1        0.1682
     17 N         138.0130  141.2664  163.2474 N.ar    1  UNL1       -0.2304
     18 N         137.8898  139.9583  165.4888 N.am    1  UNL1       -0.2639
     19 C         138.1083  138.6968  166.2704 C.2     1  UNL1        0.2718
     20 O         137.7665  138.6503  167.7302 O.2     1  UNL1       -0.2707
     21 C         138.6687  137.4819  165.5922 C.3     1  UNL1        0.2898
     22 O         139.0105  137.5284  164.1324 O.3     1  UNL1       -0.4628
     23 H         137.5220  140.7557  165.9339 H       1  UNL1        0.1565
     24 C         144.0313  144.5789  163.9182 C.3     1  UNL1        0.0611
     25 C         144.5120  143.6458  164.9899 C.3     1  UNL1        0.1388
     26 O         145.2431  144.1869  166.1827 O.3     1  UNL1       -0.3798
     27 H         145.3196  145.1507  166.1052 H       1  UNL1        0.2108
     28 C         141.5727  141.6296  167.7367 C.ar    1  UNL1        0.2250
     29 C         141.3224  140.1557  167.6156 C.ar    1  UNL1        0.0593
     30 C         142.0518  139.3538  166.5788 C.ar    1  UNL1        0.0254
     31 C         143.0315  140.0258  165.6632 C.ar    1  UNL1        0.0991
     32 N         143.7609  139.2239  164.6264 N.ar    1  UNL1       -0.2400
     33 C         144.7407  139.8959  163.7108 C.ar    1  UNL1        0.1282
     34 C         144.9911  141.3700  163.8319 C.ar    1  UNL1        0.1589
     35 F         145.9708  142.0420  162.9163 F       1  UNL1       -0.2027
     36 C         144.2617  142.1719  164.8687 C.ar    1  UNL1        0.0526
     37 C         143.2819  141.4998  165.7843 C.ar    1  UNL1        0.1024
     38 N         142.5525  142.3017  166.8211 N.ar    1  UNL1       -0.2103
     39 C         139.9011  141.7513  169.7219 C.3     1  UNL1        0.2542
     40 O         140.8433  142.4315  168.7735 O.3     1  UNL1       -0.4561
@<TRIPOS>BOND
     1    39    40    1
     2    40    28    1
     3    28    29   ar
     4    29    30   ar
     5    30    31   ar
     6    31    32   ar
     7    32    33   ar
     8    33    34   ar
     9    34    35    1
    10    34    36   ar
    11    36    25    1
    12    25    26    1
    13    25    24    1
    14    24     1    1
    15     1     2    1
    16     2     3    1
    17     3     4    1
    18     4     9    1
    19     9    11    1
    20    11    12    1
    21    12    13   ar
    22    13    14   ar
    23    14    15   ar
    24    15    16   ar
    25    16    17   ar
    26    16    18    1
    27    18    19   am
    28    19    20    2
    29    19    21    1
    30    21    22    1
    31     4     5    1
    32     5     6    1
    33     4     7    1
    34     7     8    1
    35    36    37   ar
    36    37    38   ar
    37    38    28   ar
    38    37    31   ar
    39     6     1    1
    40     8     1    1
    41    17    12   ar
    42    22    15    1
    43    26    27    1
    44     9    10    1
    45    18    23    1
@<TRIPOS>MOLECULE
*****
 40 45 0 0 0
SMALL
GASTEIGER

@<TRIPOS>ATOM
      1 C         140.9095  144.9074  163.0956 C.3     1  UNL1        0.0956
      2 C         141.0410  144.2736  161.7424 C.3     1  UNL1        0.0287
      3 C         142.3832  143.8109  161.2582 C.3     1  UNL1        0.0193
      4 C         143.5939  143.9820  162.1272 C.3     1  UNL1        0.0700
      5 C         143.4623  144.6158  163.4803 C.3     1  UNL1        0.0193
      6 C         142.1201  145.0785  163.9645 C.3     1  UNL1        0.0287
      7 C         142.8795  144.2511  162.4356 C.3     1  UNL1        0.1562
      8 O         141.6658  144.6695  162.8734 O.3     1  UNL1       -0.3571
      9 N         144.9360  143.5193  161.6430 N.3     1  UNL1       -0.2926
     10 H         145.6241  143.8557  162.3166 H       1  UNL1        0.1236
     11 C         145.1996  142.0554  161.4491 C.3     1  UNL1        0.1152
     12 C         144.5333  141.0490  162.3396 C.ar    1  UNL1        0.0765
     13 C         145.1967  140.6204  163.6149 C.ar    1  UNL1        0.0193
     14 C         144.5304  139.6140  164.5055 C.ar    1  UNL1        0.0411
     15 C         143.2007  139.0361  164.1208 C.ar    1  UNL1        0.1708
     16 C         142.5373  139.4646  162.8456 C.ar    1  UNL1        0.1682
     17 N         143.2036  140.4711  161.9550 N.ar    1  UNL1       -0.2304
     18 N         141.2076  138.8868  162.4609 N.am    1  UNL1       -0.2639
     19 C         140.5413  137.8803  163.3514 C.2     1  UNL1        0.2718
     20 O         139.2117  137.3025  162.9667 O.2     1  UNL1       -0.2707
     21 C         141.2047  137.4517  164.6267 C.3     1  UNL1        0.2898
     22 O         142.5344  138.0296  165.0114 O.3     1  UNL1       -0.4628
     23 H         140.7723  139.1681  161.6239 H       1  UNL1        0.1565
     24 C         139.5673  145.3701  163.5798 C.3     1  UNL1        0.0611
     25 C         138.9072  144.6777  164.7352 C.3     1  UNL1        0.1388
     26 O         138.4423  145.4723  165.9194 O.3     1  UNL1       -0.3798
     27 H         138.6432  146.4107  165.7782 H       1  UNL1        0.2108
     28 C         140.8796  142.0887  167.8428 C.ar    1  UNL1        0.2250
     29 C         140.6844  140.6018  167.8139 C.ar    1  UNL1        0.0593
     30 C         139.8318  139.9778  166.7492 C.ar    1  UNL1        0.0254
     31 C         139.1743  140.8408  165.7133 C.ar    1  UNL1        0.0991
     32 N         138.3217  140.2168  164.6486 N.ar    1  UNL1       -0.2400
     33 C         137.6643  141.0797  163.6127 C.ar    1  UNL1        0.1282
     34 C         137.8594  142.5667  163.6415 C.ar    1  UNL1        0.1589
     35 F         137.2020  143.4297  162.6057 F       1  UNL1       -0.2027
     36 C         138.7120  143.1907  164.7063 C.ar    1  UNL1        0.0526
     37 C         139.3695  142.3277  165.7422 C.ar    1  UNL1        0.1024
     38 N         140.2221  142.9517  166.8069 N.ar    1  UNL1       -0.2103
     39 C         143.1830  142.3476  169.0163 C.3     1  UNL1        0.2542
     40 O         141.7322  142.7127  168.9075 O.3     1  UNL1       -0.4561
@<TRIPOS>BOND
     1    39    40    1
     2    40    28    1
     3    28    29   ar
     4    29    30   ar
     5    30    31   ar
     6    31    32   ar
     7    32    33   ar
     8    33    34   ar
     9    34    35    1
    10    34    36   ar
    11    36    25    1
    12    25    26    1
    13    25    24    1
    14    24     1    1
    15     1     2    1
    16     2     3    1
    17     3     4    1
    18     4     9    1
    19     9    11    1
    20    11    12    1
    21    12    13   ar
    22    13    14   ar
    23    14    15   ar
    24    15    16   ar
    25    16    17   ar
    26    16    18    1
    27    18    19   am
    28    19    20    2
    29    19    21    1
    30    21    22    1
    31     4     5    1
    32     5     6    1
    33     4     7    1
    34     7     8    1
    35    36    37   ar
    36    37    38   ar
    37    38    28   ar
    38    37    31   ar
    39     6     1    1
    40     8     1    1
    41    17    12   ar
    42    22    15    1
    43    26    27    1
    44     9    10    1
    45    18    23    1
@<TRIPOS>MOLECULE
*****
 40 45 0 0 0
SMALL
GASTEIGER

@<TRIPOS>ATOM
      1 C         141.8156  138.0900  163.9886 C.3     1  UNL1        0.0956
      2 C         142.1353  138.4846  162.5772 C.3     1  UNL1        0.0287
      3 C         143.3782  139.2703  162.2814 C.3     1  UNL1        0.0193
      4 C         144.3016  139.6615  163.3970 C.3     1  UNL1        0.0700
      5 C         143.9819  139.2669  164.8084 C.3     1  UNL1        0.0193
      6 C         142.7388  138.4811  165.1042 C.3     1  UNL1        0.0287
      7 C         143.6323  139.2309  163.6081 C.3     1  UNL1        0.1562
      8 O         142.5083  138.5204  163.8757 O.3     1  UNL1       -0.3571
      9 N         145.5445  140.4473  163.1012 N.3     1  UNL1       -0.2926
     10 H         145.6869  140.4043  162.0921 H       1  UNL1        0.1236
     11 C         145.6274  141.8939  163.4889 C.3     1  UNL1        0.1152
     12 C         144.4516  142.7984  163.2671 C.ar    1  UNL1        0.0765
     13 C         143.7909  143.4697  164.4346 C.ar    1  UNL1        0.0193
     14 C         142.6150  144.3741  164.2127 C.ar    1  UNL1        0.0411
     15 C         142.0998  144.6074  162.8234 C.ar    1  UNL1        0.1708
     16 C         142.7604  143.9362  161.6560 C.ar    1  UNL1        0.1682
     17 N         143.9363  143.0317  161.8778 N.ar    1  UNL1       -0.2304
     18 N         142.2452  144.1695  160.2667 N.am    1  UNL1       -0.2639
     19 C         141.0694  145.0739  160.0448 C.2     1  UNL1        0.2718
     20 O         140.5541  145.3072  158.6556 O.2     1  UNL1       -0.2707
     21 C         140.4087  145.7452  161.2123 C.3     1  UNL1        0.2898
     22 O         140.9239  145.5119  162.6016 O.3     1  UNL1       -0.4628
     23 H         142.6788  143.7289  159.5004 H       1  UNL1        0.1565
     24 C         140.5726  137.3042  164.2844 C.3     1  UNL1        0.0611
     25 C         139.3248  138.0115  164.7237 C.3     1  UNL1        0.1388
     26 O         138.5071  137.4583  165.8530 O.3     1  UNL1       -0.3798
     27 H         138.9214  136.6464  166.1847 H       1  UNL1        0.2108
     28 C         140.2100  142.0109  166.5868 C.ar    1  UNL1        0.2250
     29 C         139.7800  143.2714  165.8968 C.ar    1  UNL1        0.0593
     30 C         139.0550  143.1988  164.5857 C.ar    1  UNL1        0.0254
     31 C         138.7599  141.8657  163.9646 C.ar    1  UNL1        0.0991
     32 N         138.0349  141.7931  162.6535 N.ar    1  UNL1       -0.2400
     33 C         137.7398  140.4600  162.0324 C.ar    1  UNL1        0.1282
     34 C         138.1698  139.1994  162.7225 C.ar    1  UNL1        0.1589
     35 F         137.8748  137.8663  162.1014 F       1  UNL1       -0.2027
     36 C         138.8949  139.2720  164.0336 C.ar    1  UNL1        0.0526
     37 C         139.1899  140.6052  164.6547 C.ar    1  UNL1        0.1024
     38 N         139.9149  140.6778  165.9658 N.ar    1  UNL1       -0.2103
     39 C         140.4706  143.0354  168.9601 C.3     1  UNL1        0.2542
     40 O         140.9350  142.0835  167.8980 O.3     1  UNL1       -0.4561
@<TRIPOS>BOND
     1    39    40    1
     2    40    28    1
     3    28    29   ar
     4    29    30   ar
     5    30    31   ar
     6    31    32   ar
     7    32    33   ar
     8    33    34   ar
     9    34    35    1
    10    34    36   ar
    11    36    25    1
    12    25    26    1
    13    25    24    1
    14    24     1    1
    15     1     2    1
    16     2     3    1
    17     3     4    1
    18     4     9    1
    19     9    11    1
    20    11    12    1
    21    12    13   ar
    22    13    14   ar
    23    14    15   ar
    24    15    16   ar
    25    16    17   ar
    26    16    18    1
    27    18    19   am
    28    19    20    2
    29    19    21    1
    30    21    22    1
    31     4     5    1
    32     5     6    1
    33     4     7    1
    34     7     8    1
    35    36    37   ar
    36    37    38   ar
    37    38    28   ar
    38    37    31   ar
    39     6     1    1
    40     8     1    1
    41    17    12   ar
    42    22    15    1
    43    26    27    1
    44     9    10    1
    45    18    23    1
@<TRIPOS>MOLECULE
*****
 40 45 0 0 0
SMALL
GASTEIGER

@<TRIPOS>ATOM
      1 C         143.1772  143.5417  161.9362 C.3     1  UNL1        0.0956
      2 C         142.1097  144.4770  162.4217 C.3     1  UNL1        0.0287
      3 C         140.7267  144.4003  161.8461 C.3     1  UNL1        0.0193
      4 C         140.4112  143.3883  160.7847 C.3     1  UNL1        0.0700
      5 C         141.4787  142.4530  160.2991 C.3     1  UNL1        0.0193
      6 C         142.8617  142.5298  160.8749 C.3     1  UNL1        0.0287
      7 C         141.1835  143.3925  161.0701 C.3     1  UNL1        0.1562
      8 O         142.4341  143.4618  161.5907 O.3     1  UNL1       -0.3571
      9 N         139.0282  143.3115  160.2090 N.3     1  UNL1       -0.2926
     10 H         139.0960  142.7624  159.3521 H       1  UNL1        0.1236
     11 C         137.9117  142.7184  161.0162 C.3     1  UNL1        0.1152
     12 C         138.1238  141.4324  161.7585 C.ar    1  UNL1        0.0765
     13 C         138.5419  140.1979  161.0159 C.ar    1  UNL1        0.0193
     14 C         138.7541  138.9119  161.7582 C.ar    1  UNL1        0.0411
     15 C         138.5482  138.8602  163.2431 C.ar    1  UNL1        0.1708
     16 C         138.1302  140.0946  163.9857 C.ar    1  UNL1        0.1682
     17 N         137.9180  141.3807  163.2434 N.ar    1  UNL1       -0.2304
     18 N         137.9243  140.0429  165.4706 N.am    1  UNL1       -0.2639
     19 C         138.1365  138.7569  166.2129 C.2     1  UNL1        0.2718
     20 O         137.9306  138.7052  167.6978 O.2     1  UNL1       -0.2707
     21 C         138.5546  137.5224  165.4703 C.3     1  UNL1        0.2898
     22 O         138.7605  137.5741  163.9854 O.3     1  UNL1       -0.4628
     23 H         137.6499  140.8531  165.9580 H       1  UNL1        0.1565
     24 C         144.5602  143.6184  162.5118 C.3     1  UNL1        0.0611
     25 C         145.0616  142.5244  163.4072 C.3     1  UNL1        0.1388
     26 O         146.3585  141.8371  163.0976 O.3     1  UNL1       -0.3798
     27 H         146.7415  142.2172  162.2916 H       1  UNL1        0.2108
     28 C         142.8179  138.6236  163.4103 C.ar    1  UNL1        0.2250
     29 C         142.0226  138.2169  164.6152 C.ar    1  UNL1        0.0593
     30 C         141.9750  139.1104  165.8192 C.ar    1  UNL1        0.0254
     31 C         142.7229  140.4106  165.8181 C.ar    1  UNL1        0.0991
     32 N         142.6754  141.3041  167.0221 N.ar    1  UNL1       -0.2400
     33 C         143.4233  142.6044  167.0210 C.ar    1  UNL1        0.1282
     34 C         144.2187  143.0112  165.8161 C.ar    1  UNL1        0.1589
     35 F         144.9666  144.3114  165.8151 F       1  UNL1       -0.2027
     36 C         144.2662  142.1177  164.6122 C.ar    1  UNL1        0.0526
     37 C         143.5183  140.8174  164.6132 C.ar    1  UNL1        0.1024
     38 N         143.5658  139.9239  163.4093 N.ar    1  UNL1       -0.2103
     39 C         144.0314  137.8010  161.2654 C.3     1  UNL1        0.2542
     40 O         142.8655  137.7301  162.2064 O.3     1  UNL1       -0.4561
@<TRIPOS>BOND
     1    39    40    1
     2    40    28    1
     3    28    29   ar
     4    29    30   ar
     5    30    31   ar
     6    31    32   ar
     7    32    33   ar
     8    33    34   ar
     9    34    35    1
    10    34    36   ar
    11    36    25    1
    12    25    26    1
    13    25    24    1
    14    24     1    1
    15     1     2    1
    16     2     3    1
    17     3     4    1
    18     4     9    1
    19     9    11    1
    20    11    12    1
    21    12    13   ar
    22    13    14   ar
    23    14    15   ar
    24    15    16   ar
    25    16    17   ar
    26    16    18    1
    27    18    19   am
    28    19    20    2
    29    19    21    1
    30    21    22    1
    31     4     5    1
    32     5     6    1
    33     4     7    1
    34     7     8    1
    35    36    37   ar
    36    37    38   ar
    37    38    28   ar
    38    37    31   ar
    39     6     1    1
    40     8     1    1
    41    17    12   ar
    42    22    15    1
    43    26    27    1
    44     9    10    1
    45    18    23    1
@<TRIPOS>MOLECULE
*****
 40 45 0 0 0
SMALL
GASTEIGER

@<TRIPOS>ATOM
      1 C         141.5964  138.4740  164.4787 C.3     1  UNL1        0.0956
      2 C         142.7882  138.6018  165.3806 C.3     1  UNL1        0.0287
      3 C         144.0412  139.2567  164.8795 C.3     1  UNL1        0.0193
      4 C         144.1025  139.7837  163.4764 C.3     1  UNL1        0.0700
      5 C         142.9108  139.6559  162.5745 C.3     1  UNL1        0.0193
      6 C         141.6577  139.0010  163.0757 C.3     1  UNL1        0.0287
      7 C         143.3940  139.4327  163.7062 C.3     1  UNL1        0.1562
      8 O         142.2610  138.8406  164.1593 O.3     1  UNL1       -0.3571
      9 N         145.3555  140.4385  162.9753 N.3     1  UNL1       -0.2926
     10 H         145.4036  140.2541  161.9733 H       1  UNL1        0.1236
     11 C         145.5533  141.9147  163.1539 C.3     1  UNL1        0.1152
     12 C         144.3824  142.8463  163.0493 C.ar    1  UNL1        0.0765
     13 C         143.8185  143.4838  164.2846 C.ar    1  UNL1        0.0193
     14 C         142.6476  144.4155  164.1800 C.ar    1  UNL1        0.0411
     15 C         142.0406  144.7097  162.8403 C.ar    1  UNL1        0.1708
     16 C         142.6044  144.0724  161.6051 C.ar    1  UNL1        0.1682
     17 N         143.7754  143.1406  161.7096 N.ar    1  UNL1       -0.2304
     18 N         141.9974  144.3666  160.2653 N.am    1  UNL1       -0.2639
     19 C         140.8265  145.2983  160.1608 C.2     1  UNL1        0.2718
     20 O         140.2195  145.5926  158.8211 O.2     1  UNL1       -0.2707
     21 C         140.2626  145.9358  161.3960 C.3     1  UNL1        0.2898
     22 O         140.8696  145.6415  162.7358 O.3     1  UNL1       -0.4628
     23 H         142.3675  143.9483  159.4546 H       1  UNL1        0.1565
     24 C         140.3434  137.8192  164.9798 C.3     1  UNL1        0.0611
     25 C         139.3127  138.6304  165.7075 C.3     1  UNL1        0.1388
     26 O         138.0817  137.9666  166.2498 O.3     1  UNL1       -0.3798
     27 H         138.1087  137.0188  166.0453 H       1  UNL1        0.2108
     28 C         137.8217  141.5127  162.5900 C.ar    1  UNL1        0.2250
     29 C         138.0219  142.9877  162.7754 C.ar    1  UNL1        0.0593
     30 C         138.7191  143.5019  163.9999 C.ar    1  UNL1        0.0254
     31 C         139.2161  142.5411  165.0391 C.ar    1  UNL1        0.0991
     32 N         139.9133  143.0553  166.2637 N.ar    1  UNL1       -0.2400
     33 C         140.4102  142.0946  167.3028 C.ar    1  UNL1        0.1282
     34 C         140.2100  140.6195  167.1175 C.ar    1  UNL1        0.1589
     35 F         140.7070  139.6588  168.1566 F       1  UNL1       -0.2027
     36 C         139.5129  140.1053  165.8929 C.ar    1  UNL1        0.0526
     37 C         139.0159  141.0662  164.8537 C.ar    1  UNL1        0.1024
     38 N         138.3187  140.5520  163.6291 N.ar    1  UNL1       -0.2103
     39 C         137.5567  139.7033  160.7446 C.3     1  UNL1        0.2542
     40 O         137.1246  140.9985  161.3654 O.3     1  UNL1       -0.4561
@<TRIPOS>BOND
     1    39    40    1
     2    40    28    1
     3    28    29   ar
     4    29    30   ar
     5    30    31   ar
     6    31    32   ar
     7    32    33   ar
     8    33    34   ar
     9    34    35    1
    10    34    36   ar
    11    36    25    1
    12    25    26    1
    13    25    24    1
    14    24     1    1
    15     1     2    1
    16     2     3    1
    17     3     4    1
    18     4     9    1
    19     9    11    1
    20    11    12    1
    21    12    13   ar
    22    13    14   ar
    23    14    15   ar
    24    15    16   ar
    25    16    17   ar
    26    16    18    1
    27    18    19   am
    28    19    20    2
    29    19    21    1
    30    21    22    1
    31     4     5    1
    32     5     6    1
    33     4     7    1
    34     7     8    1
    35    36    37   ar
    36    37    38   ar
    37    38    28   ar
    38    37    31   ar
    39     6     1    1
    40     8     1    1
    41    17    12   ar
    42    22    15    1
    43    26    27    1
    44     9    10    1
    45    18    23    1
@<TRIPOS>MOLECULE
*****
 40 45 0 0 0
SMALL
GASTEIGER

@<TRIPOS>ATOM
      1 C         143.3902  138.9433  163.4847 C.3     1  UNL1        0.0956
      2 C         142.4824  138.3202  164.5034 C.3     1  UNL1        0.0287
      3 C         141.1742  137.7233  164.0768 C.3     1  UNL1        0.0193
      4 C         140.7735  137.7495  162.6315 C.3     1  UNL1        0.0700
      5 C         141.6813  138.3726  161.6128 C.3     1  UNL1        0.0193
      6 C         142.9897  138.9695  162.0394 C.3     1  UNL1        0.0287
      7 C         141.5002  138.0891  162.8173 C.3     1  UNL1        0.1562
      8 O         142.6832  138.6289  163.2030 O.3     1  UNL1       -0.3571
      9 N         139.4653  137.1526  162.2049 N.3     1  UNL1       -0.2926
     10 H         139.3663  136.2704  162.7074 H       1  UNL1        0.1236
     11 C         138.1900  137.9146  162.4125 C.3     1  UNL1        0.1152
     12 C         138.1767  139.4076  162.2694 C.ar    1  UNL1        0.0765
     13 C         138.2286  140.0310  160.9060 C.ar    1  UNL1        0.0193
     14 C         138.2153  141.5240  160.7630 C.ar    1  UNL1        0.0411
     15 C         138.1500  142.3938  161.9833 C.ar    1  UNL1        0.1708
     16 C         138.0981  141.7706  163.3466 C.ar    1  UNL1        0.1682
     17 N         138.1114  140.2774  163.4897 N.ar    1  UNL1       -0.2304
     18 N         138.0329  142.6404  164.5669 N.am    1  UNL1       -0.2639
     19 C         138.0196  144.1335  164.4239 C.2     1  UNL1        0.2718
     20 O         137.9543  145.0033  165.6442 O.2     1  UNL1       -0.2707
     21 C         138.0715  144.7568  163.0605 C.3     1  UNL1        0.2898
     22 O         138.1367  143.8870  161.8401 O.3     1  UNL1       -0.4628
     23 H         137.9988  142.2313  165.4618 H       1  UNL1        0.1565
     24 C         144.6985  139.5403  163.9112 C.3     1  UNL1        0.0611
     25 C         144.8307  141.0267  164.0631 C.3     1  UNL1        0.1388
     26 O         146.1896  141.6617  164.0732 O.3     1  UNL1       -0.3798
     27 H         146.8678  140.9756  163.9720 H       1  UNL1        0.2108
     28 C         142.5954  141.1196  167.9676 C.ar    1  UNL1        0.2250
     29 C         141.3687  141.9711  168.1094 C.ar    1  UNL1        0.0593
     30 C         140.8870  142.7916  166.9497 C.ar    1  UNL1        0.0254
     31 C         141.6321  142.7606  165.6482 C.ar    1  UNL1        0.0991
     32 N         141.1504  143.5811  164.4886 N.ar    1  UNL1       -0.2400
     33 C         141.8955  143.5501  163.1871 C.ar    1  UNL1        0.1282
     34 C         143.1223  142.6987  163.0452 C.ar    1  UNL1        0.1589
     35 F         143.8674  142.6677  161.7438 F       1  UNL1       -0.2027
     36 C         143.6040  141.8782  164.2049 C.ar    1  UNL1        0.0526
     37 C         142.8588  141.9092  165.5064 C.ar    1  UNL1        0.1024
     38 N         143.3405  141.0887  166.6661 N.ar    1  UNL1       -0.2103
     39 C         142.1834  139.2566  169.7309 C.3     1  UNL1        0.2542
     40 O         143.0770  140.2991  169.1272 O.3     1  UNL1       -0.4561
@<TRIPOS>BOND
     1    39    40    1
     2    40    28    1
     3    28    29   ar
     4    29    30   ar
     5    30    31   ar
     6    31    32   ar
     7    32    33   ar
     8    33    34   ar
     9    34    35    1
    10    34    36   ar
    11    36    25    1
    12    25    26    1
    13    25    24    1
    14    24     1    1
    15     1     2    1
    16     2     3    1
    17     3     4    1
    18     4     9    1
    19     9    11    1
    20    11    12    1
    21    12    13   ar
    22    13    14   ar
    23    14    15   ar
    24    15    16   ar
    25    16    17   ar
    26    16    18    1
    27    18    19   am
    28    19    20    2
    29    19    21    1
    30    21    22    1
    31     4     5    1
    32     5     6    1
    33     4     7    1
    34     7     8    1
    35    36    37   ar
    36    37    38   ar
    37    38    28   ar
    38    37    31   ar
    39     6     1    1
    40     8     1    1
    41    17    12   ar
    42    22    15    1
    43    26    27    1
    44     9    10    1
    45    18    23    1
