@<TRIPOS>MOLECULE
*****
 44 48 0 0 0
SMALL
GASTEIGER

@<TRIPOS>ATOM
      1 C         141.3244  140.9210  162.5181 C.3     1  UNL1        0.0807
      2 C         141.4025  140.6579  163.9928 C.ar    1  UNL1        0.0375
      3 C         141.0280  141.7347  164.9676 C.ar    1  UNL1        0.0023
      4 C         141.1062  141.4716  166.4424 C.ar    1  UNL1        0.0181
      5 C         140.7317  142.5483  167.4172 C.ar    1  UNL1        0.0082
      6 C         140.8098  142.2852  168.8918 C.ar    1  UNL1        0.0347
      7 BR        140.4353  143.3619  169.8668 Br      1  UNL1       -0.0490
      8 C         141.2625  140.9453  169.3916 C.ar    1  UNL1        0.0082
      9 C         141.6370  139.8685  168.4168 C.ar    1  UNL1        0.0197
     10 C         141.5589  140.1317  166.9422 C.ar    1  UNL1        0.0844
     11 N         141.9334  139.0549  165.9673 N.ar    1  UNL1       -0.2119
     12 C         141.8552  139.3181  164.4926 C.ar    1  UNL1        0.2211
     13 O         142.2298  138.2413  163.5177 O.3     1  UNL1       -0.4563
     14 C         141.0811  137.2767  163.5059 C.3     1  UNL1        0.2542
     15 C         140.1271  140.4661  161.7375 C.ar    1  UNL1        0.0213
     16 C         138.7461  140.7827  162.2301 C.ar    1  UNL1       -0.0007
     17 C         137.5487  140.3277  161.4495 C.ar    1  UNL1        0.0030
     18 C         137.7323  139.5562  160.1763 C.ar    1  UNL1        0.0400
     19 C         139.1133  139.2397  159.6837 C.ar    1  UNL1        0.1721
     20 C         140.3107  139.6946  160.4643 C.ar    1  UNL1        0.1687
     21 O         141.6916  139.3781  159.9717 O.3     1  UNL1       -0.4687
     22 C         141.8752  138.6066  158.6984 C.3     1  UNL1        0.2526
     23 C         140.6779  138.1516  157.9179 C.3     1  UNL1        0.2526
     24 O         139.2970  138.4682  158.4105 O.3     1  UNL1       -0.4684
     25 C         142.4436  141.6391  161.8240 C.3     1  UNL1        0.1162
     26 O         143.3632  140.4915  162.1196 O.3     1  UNL1       -0.3820
     27 H         144.2438  140.6819  161.7602 H       1  UNL1        0.2107
     28 C         140.0041  144.7234  162.3584 C.ar    1  UNL1        0.2271
     29 C         140.9237  143.5758  162.6540 C.ar    1  UNL1        0.0559
     30 C         141.5241  142.7867  161.5285 C.ar    1  UNL1        0.0117
     31 C         141.2049  143.1453  160.1074 C.ar    1  UNL1        0.0559
     32 C         140.2853  144.2929  159.8118 C.ar    1  UNL1        0.2271
     33 N         139.6850  145.0820  160.9374 N.ar    1  UNL1       -0.1767
     34 O         139.4038  145.5126  163.4841 O.3     1  UNL1       -0.4602
     35 C         137.8651  143.6967  164.5256 C.3     1  UNL1        0.0512
     36 C         138.8622  144.8050  164.6907 C.3     1  UNL1        0.2072
     37 O         139.9662  144.6514  158.3907 O.3     1  UNL1       -0.4602
     38 C         140.6109  145.8479  157.7561 C.3     1  UNL1        0.2072
     39 C         142.0900  145.8587  157.5063 C.3     1  UNL1        0.0512
     40 C         143.5629  142.3572  161.1300 C.3     1  UNL1        0.0491
     41 C         144.5386  143.1723  161.9259 C.3     1  UNL1        0.0750
     42 N         144.8568  142.7899  163.3410 N.3     1  UNL1       -0.2702
     43 C         144.1874  143.5019  164.4789 C.3     1  UNL1        0.0897
     44 C         145.8444  141.6955  163.6181 C.3     1  UNL1        0.0897
@<TRIPOS>BOND
     1    35    36    1
     2    36    34    1
     3    34    28    1
     4    28    29   ar
     5    29    30   ar
     6    30    25    1
     7    25    26    1
     8    25    40    1
     9    40    41    1
    10    41    42    1
    11    42    43    1
    12    42    44    1
    13    25     1    1
    14     1     2    1
    15     2     3   ar
    16     3     4   ar
    17     4     5   ar
    18     5     6   ar
    19     6     7    1
    20     6     8   ar
    21     8     9   ar
    22     9    10   ar
    23    10    11   ar
    24    11    12   ar
    25    12    13    1
    26    13    14    1
    27     1    15    1
    28    15    16   ar
    29    16    17   ar
    30    17    18   ar
    31    18    19   ar
    32    19    20   ar
    33    20    21    1
    34    21    22    1
    35    22    23    1
    36    23    24    1
    37    30    31   ar
    38    31    32   ar
    39    32    37    1
    40    37    38    1
    41    38    39    1
    42    32    33   ar
    43    33    28   ar
    44    12     2   ar
    45    20    15   ar
    46    10     4   ar
    47    24    19    1
    48    26    27    1
@<TRIPOS>MOLECULE
*****
 44 48 0 0 0
SMALL
GASTEIGER

@<TRIPOS>ATOM
      1 C         141.3012  140.9149  162.4996 C.3     1  UNL1        0.0807
      2 C         141.3664  140.6511  163.9749 C.ar    1  UNL1        0.0375
      3 C         141.0098  141.7361  164.9472 C.ar    1  UNL1        0.0023
      4 C         141.0751  141.4724  166.4225 C.ar    1  UNL1        0.0181
      5 C         140.7185  142.5574  167.3949 C.ar    1  UNL1        0.0082
      6 C         140.7838  142.2936  168.8700 C.ar    1  UNL1        0.0347
      7 BR        140.4272  143.3786  169.8425 Br      1  UNL1       -0.0490
      8 C         141.2057  140.9448  169.3728 C.ar    1  UNL1        0.0082
      9 C         141.5622  139.8598  168.4004 C.ar    1  UNL1        0.0197
     10 C         141.4970  140.1236  166.9252 C.ar    1  UNL1        0.0844
     11 N         141.8536  139.0385  165.9528 N.ar    1  UNL1       -0.2119
     12 C         141.7883  139.3023  164.4776 C.ar    1  UNL1        0.2211
     13 O         142.1449  138.2173  163.5052 O.3     1  UNL1       -0.4563
     14 C         140.9798  137.2726  163.4945 C.3     1  UNL1        0.2542
     15 C         140.1001  140.4814  161.7126 C.ar    1  UNL1        0.0213
     16 C         138.7220  140.8093  162.2058 C.ar    1  UNL1       -0.0007
     17 C         137.5208  140.3758  161.4188 C.ar    1  UNL1        0.0030
     18 C         137.6978  139.6143  160.1387 C.ar    1  UNL1        0.0400
     19 C         139.0760  139.2864  159.6455 C.ar    1  UNL1        0.1721
     20 C         140.2771  139.7199  160.4325 C.ar    1  UNL1        0.1687
     21 O         141.6552  139.3919  159.9393 O.3     1  UNL1       -0.4687
     22 C         141.8322  138.6304  158.6591 C.3     1  UNL1        0.2526
     23 C         140.6311  138.1969  157.8722 C.3     1  UNL1        0.2526
     24 O         139.2530  138.5249  158.3653 O.3     1  UNL1       -0.4684
     25 C         142.4370  141.6122  161.8115 C.3     1  UNL1        0.1162
     26 O         143.3396  140.4576  162.1312 O.3     1  UNL1       -0.3820
     27 H         144.2266  140.6338  161.7806 H       1  UNL1        0.2107
     28 C         140.3477  144.2778  159.7429 C.ar    1  UNL1        0.2271
     29 C         141.2502  143.1232  160.0627 C.ar    1  UNL1        0.0559
     30 C         141.5345  142.7668  161.4917 C.ar    1  UNL1        0.0117
     31 C         140.9162  143.5651  162.6009 C.ar    1  UNL1        0.0559
     32 C         140.0137  144.7197  162.2812 C.ar    1  UNL1        0.2271
     33 N         139.7294  145.0761  160.8522 N.ar    1  UNL1       -0.1767
     34 O         140.0634  144.6342  158.3138 O.3     1  UNL1       -0.4602
     35 C         142.0244  145.8959  157.1682 C.3     1  UNL1        0.0512
     36 C         140.6324  145.8920  157.7270 C.3     1  UNL1        0.2072
     37 O         139.3954  145.5180  163.3905 O.3     1  UNL1       -0.4602
     38 C         138.9281  144.8304  164.6390 C.3     1  UNL1        0.2072
     39 C         137.8651  143.7748  164.5609 C.3     1  UNL1        0.0512
     40 C         143.5729  142.3095  161.1233 C.3     1  UNL1        0.0491
     41 C         144.5183  143.1639  161.9146 C.3     1  UNL1        0.0750
     42 N         144.8519  142.7996  163.3310 N.3     1  UNL1       -0.2702
     43 C         144.1819  143.5144  164.4669 C.3     1  UNL1        0.0897
     44 C         145.8554  141.7207  163.6115 C.3     1  UNL1        0.0897
@<TRIPOS>BOND
     1    35    36    1
     2    36    34    1
     3    34    28    1
     4    28    29   ar
     5    29    30   ar
     6    30    25    1
     7    25    26    1
     8    25    40    1
     9    40    41    1
    10    41    42    1
    11    42    43    1
    12    42    44    1
    13    25     1    1
    14     1     2    1
    15     2     3   ar
    16     3     4   ar
    17     4     5   ar
    18     5     6   ar
    19     6     7    1
    20     6     8   ar
    21     8     9   ar
    22     9    10   ar
    23    10    11   ar
    24    11    12   ar
    25    12    13    1
    26    13    14    1
    27     1    15    1
    28    15    16   ar
    29    16    17   ar
    30    17    18   ar
    31    18    19   ar
    32    19    20   ar
    33    20    21    1
    34    21    22    1
    35    22    23    1
    36    23    24    1
    37    30    31   ar
    38    31    32   ar
    39    32    37    1
    40    37    38    1
    41    38    39    1
    42    32    33   ar
    43    33    28   ar
    44    12     2   ar
    45    20    15   ar
    46    10     4   ar
    47    24    19    1
    48    26    27    1
@<TRIPOS>MOLECULE
*****
 44 48 0 0 0
SMALL
GASTEIGER

@<TRIPOS>ATOM
      1 C         140.6571  140.6224  162.8517 C.3     1  UNL1        0.0807
      2 C         140.3649  140.4944  164.3174 C.ar    1  UNL1        0.0375
      3 C         140.6162  141.6530  165.2363 C.ar    1  UNL1        0.0023
      4 C         140.3241  141.5250  166.7020 C.ar    1  UNL1        0.0181
      5 C         140.5754  142.6837  167.6208 C.ar    1  UNL1        0.0082
      6 C         140.2833  142.5556  169.0865 C.ar    1  UNL1        0.0347
      7 BR        140.5346  143.7143  170.0054 Br      1  UNL1       -0.0490
      8 C         139.7398  141.2689  169.6333 C.ar    1  UNL1        0.0082
      9 C         139.4885  140.1103  168.7145 C.ar    1  UNL1        0.0197
     10 C         139.7806  140.2383  167.2488 C.ar    1  UNL1        0.0844
     11 N         139.5293  139.0796  166.3299 N.ar    1  UNL1       -0.2119
     12 C         139.8214  139.2077  164.8642 C.ar    1  UNL1        0.2211
     13 O         139.5701  138.0490  163.9453 O.3     1  UNL1       -0.4563
     14 C         140.6815  137.0735  164.1966 C.3     1  UNL1        0.2542
     15 C         141.7836  139.8431  162.2406 C.ar    1  UNL1        0.0213
     16 C         143.0880  139.7136  162.9697 C.ar    1  UNL1       -0.0007
     17 C         144.2147  138.9342  162.3587 C.ar    1  UNL1        0.0030
     18 C         144.0369  138.2844  161.0185 C.ar    1  UNL1        0.0400
     19 C         142.7323  138.4139  160.2894 C.ar    1  UNL1        0.1721
     20 C         141.6058  139.1933  160.9004 C.ar    1  UNL1        0.1687
     21 O         140.3013  139.3227  160.1713 O.3     1  UNL1       -0.4687
     22 C         140.1235  138.6729  158.8311 C.3     1  UNL1        0.2526
     23 C         141.2501  137.8936  158.2201 C.3     1  UNL1        0.2526
     24 O         142.5545  137.7641  158.9492 O.3     1  UNL1       -0.4684
     25 C         139.8226  141.5298  161.9971 C.3     1  UNL1        0.1162
     26 O         138.6374  140.6336  162.2029 O.3     1  UNL1       -0.3820
     27 H         137.8732  140.9937  161.7262 H       1  UNL1        0.2107
     28 C         142.7535  143.5197  160.2083 C.ar    1  UNL1        0.2271
     29 C         141.5684  142.6235  160.4141 C.ar    1  UNL1        0.0559
     30 C         141.0077  142.4259  161.7913 C.ar    1  UNL1        0.0117
     31 C         141.6322  143.1244  162.9626 C.ar    1  UNL1        0.0559
     32 C         142.8174  144.0205  162.7568 C.ar    1  UNL1        0.2271
     33 N         143.3780  144.2182  161.3797 N.ar    1  UNL1       -0.1767
     34 O         143.3142  143.7173  158.8311 O.3     1  UNL1       -0.4602
     35 C         141.9316  145.7239  157.9301 C.3     1  UNL1        0.0512
     36 C         142.4667  144.3333  157.7577 C.3     1  UNL1        0.2072
     37 O         143.4419  144.7190  163.9282 O.3     1  UNL1       -0.4602
     38 C         144.2877  143.9477  164.8976 C.3     1  UNL1        0.2072
     39 C         144.8090  142.5916  164.5243 C.3     1  UNL1        0.0512
     40 C         138.9881  142.4371  161.1425 C.3     1  UNL1        0.0491
     41 C         137.9197  143.2838  161.7682 C.3     1  UNL1        0.0750
     42 N         138.2895  144.3443  162.7625 N.3     1  UNL1       -0.2702
     43 C         137.9501  144.1641  164.2124 C.3     1  UNL1        0.0897
     44 C         138.9986  145.5850  162.3068 C.3     1  UNL1        0.0897
@<TRIPOS>BOND
     1    35    36    1
     2    36    34    1
     3    34    28    1
     4    28    29   ar
     5    29    30   ar
     6    30    25    1
     7    25    26    1
     8    25    40    1
     9    40    41    1
    10    41    42    1
    11    42    43    1
    12    42    44    1
    13    25     1    1
    14     1     2    1
    15     2     3   ar
    16     3     4   ar
    17     4     5   ar
    18     5     6   ar
    19     6     7    1
    20     6     8   ar
    21     8     9   ar
    22     9    10   ar
    23    10    11   ar
    24    11    12   ar
    25    12    13    1
    26    13    14    1
    27     1    15    1
    28    15    16   ar
    29    16    17   ar
    30    17    18   ar
    31    18    19   ar
    32    19    20   ar
    33    20    21    1
    34    21    22    1
    35    22    23    1
    36    23    24    1
    37    30    31   ar
    38    31    32   ar
    39    32    37    1
    40    37    38    1
    41    38    39    1
    42    32    33   ar
    43    33    28   ar
    44    12     2   ar
    45    20    15   ar
    46    10     4   ar
    47    24    19    1
    48    26    27    1
@<TRIPOS>MOLECULE
*****
 44 48 0 0 0
SMALL
GASTEIGER

@<TRIPOS>ATOM
      1 C         142.2846  141.0763  163.1330 C.3     1  UNL1        0.0807
      2 C         142.5023  141.4112  164.5789 C.ar    1  UNL1        0.0375
      3 C         141.6696  140.7484  165.6358 C.ar    1  UNL1        0.0023
      4 C         141.8873  141.0833  167.0817 C.ar    1  UNL1        0.0181
      5 C         141.0545  140.4205  168.1387 C.ar    1  UNL1        0.0082
      6 C         141.2723  140.7554  169.5845 C.ar    1  UNL1        0.0347
      7 BR        140.4395  140.0926  170.6416 Br      1  UNL1       -0.0490
      8 C         142.3227  141.7531  169.9733 C.ar    1  UNL1        0.0082
      9 C         143.1555  142.4158  168.9164 C.ar    1  UNL1        0.0197
     10 C         142.9377  142.0809  167.4706 C.ar    1  UNL1        0.0844
     11 N         143.7705  142.7437  166.4135 N.ar    1  UNL1       -0.2119
     12 C         143.5528  142.4088  164.9677 C.ar    1  UNL1        0.2211
     13 O         144.3855  143.0716  163.9106 O.3     1  UNL1       -0.4563
     14 C         143.9156  144.4946  163.8462 C.3     1  UNL1        0.2542
     15 C         141.6394  142.0767  162.2203 C.ar    1  UNL1        0.0213
     16 C         142.3476  142.5220  160.9753 C.ar    1  UNL1       -0.0007
     17 C         141.7025  143.5225  160.0626 C.ar    1  UNL1        0.0030
     18 C         140.3491  144.0775  160.3950 C.ar    1  UNL1        0.0400
     19 C         139.6409  143.6320  161.6400 C.ar    1  UNL1        0.1721
     20 C         140.2861  142.6317  162.5527 C.ar    1  UNL1        0.1687
     21 O         139.5779  142.1863  163.7977 O.3     1  UNL1       -0.4687
     22 C         138.2246  142.7413  164.1300 C.3     1  UNL1        0.2526
     23 C         137.5794  143.7417  163.2174 C.3     1  UNL1        0.2526
     24 O         138.2876  144.1870  161.9724 O.3     1  UNL1       -0.4684
     25 C         142.7121  139.7410  162.5998 C.3     1  UNL1        0.1162
     26 O         144.1376  140.2071  162.5753 O.3     1  UNL1       -0.3820
     27 H         144.7055  139.4935  162.2449 H       1  UNL1        0.2107
     28 C         139.3351  138.0665  163.8415 C.ar    1  UNL1        0.2271
     29 C         140.7606  138.5326  163.8170 C.ar    1  UNL1        0.0559
     30 C         141.2865  139.2748  162.6243 C.ar    1  UNL1        0.0117
     31 C         140.3870  139.5509  161.4562 C.ar    1  UNL1        0.0559
     32 C         138.9615  139.0847  161.4807 C.ar    1  UNL1        0.2271
     33 N         138.4355  138.3425  162.6734 N.ar    1  UNL1       -0.1767
     34 O         138.8091  137.3242  165.0342 O.3     1  UNL1       -0.4602
     35 C         138.0928  139.5738  166.1188 C.3     1  UNL1        0.0512
     36 C         138.1726  138.0767  166.1650 C.3     1  UNL1        0.2072
     37 O         138.0619  139.3608  160.3125 O.3     1  UNL1       -0.4602
     38 C         138.1372  140.6804  159.6034 C.3     1  UNL1        0.2072
     39 C         138.8727  140.7909  158.3007 C.3     1  UNL1        0.0512
     40 C         143.1395  138.4057  162.0667 C.3     1  UNL1        0.0491
     41 C         144.0517  138.3297  160.8784 C.3     1  UNL1        0.0750
     42 N         143.5610  138.7588  159.5274 N.3     1  UNL1       -0.2702
     43 C         142.7024  137.8367  158.7136 C.3     1  UNL1        0.0897
     44 C         143.9289  140.1102  158.9903 C.3     1  UNL1        0.0897
@<TRIPOS>BOND
     1    35    36    1
     2    36    34    1
     3    34    28    1
     4    28    29   ar
     5    29    30   ar
     6    30    25    1
     7    25    26    1
     8    25    40    1
     9    40    41    1
    10    41    42    1
    11    42    43    1
    12    42    44    1
    13    25     1    1
    14     1     2    1
    15     2     3   ar
    16     3     4   ar
    17     4     5   ar
    18     5     6   ar
    19     6     7    1
    20     6     8   ar
    21     8     9   ar
    22     9    10   ar
    23    10    11   ar
    24    11    12   ar
    25    12    13    1
    26    13    14    1
    27     1    15    1
    28    15    16   ar
    29    16    17   ar
    30    17    18   ar
    31    18    19   ar
    32    19    20   ar
    33    20    21    1
    34    21    22    1
    35    22    23    1
    36    23    24    1
    37    30    31   ar
    38    31    32   ar
    39    32    37    1
    40    37    38    1
    41    38    39    1
    42    32    33   ar
    43    33    28   ar
    44    12     2   ar
    45    20    15   ar
    46    10     4   ar
    47    24    19    1
    48    26    27    1
@<TRIPOS>MOLECULE
*****
 44 48 0 0 0
SMALL
GASTEIGER

@<TRIPOS>ATOM
      1 C         141.4087  142.4022  162.4375 C.3     1  UNL1        0.0807
      2 C         141.9025  142.3531  163.8531 C.ar    1  UNL1        0.0375
      3 C         141.0802  141.6794  164.9113 C.ar    1  UNL1        0.0023
      4 C         141.5740  141.6303  166.3269 C.ar    1  UNL1        0.0181
      5 C         140.7517  140.9566  167.3851 C.ar    1  UNL1        0.0082
      6 C         141.2455  140.9075  168.8006 C.ar    1  UNL1        0.0347
      7 BR        140.4232  140.2338  169.8589 Br      1  UNL1       -0.0490
      8 C         142.5617  141.5321  169.1579 C.ar    1  UNL1        0.0082
      9 C         143.3840  142.2058  168.0996 C.ar    1  UNL1        0.0197
     10 C         142.8902  142.2549  166.6841 C.ar    1  UNL1        0.0844
     11 N         143.7125  142.9286  165.6258 N.ar    1  UNL1       -0.2119
     12 C         143.2187  142.9777  164.2103 C.ar    1  UNL1        0.2211
     13 O         144.0410  143.6514  163.1520 O.3     1  UNL1       -0.4563
     14 C         143.8131  145.1237  163.3264 C.3     1  UNL1        0.2542
     15 C         142.2875  141.9249  161.3196 C.ar    1  UNL1        0.0213
     16 C         142.6038  142.8377  160.1722 C.ar    1  UNL1       -0.0007
     17 C         143.4827  142.3604  159.0542 C.ar    1  UNL1        0.0030
     18 C         144.0453  140.9702  159.0837 C.ar    1  UNL1        0.0400
     19 C         143.7289  140.0573  160.2312 C.ar    1  UNL1        0.1721
     20 C         142.8501  140.5347  161.3491 C.ar    1  UNL1        0.1687
     21 O         142.5338  139.6218  162.4965 O.3     1  UNL1       -0.4687
     22 C         143.0964  138.2316  162.5261 C.3     1  UNL1        0.2526
     23 C         143.9752  137.7543  161.4082 C.3     1  UNL1        0.2526
     24 O         144.2915  138.6671  160.2608 O.3     1  UNL1       -0.4684
     25 C         140.0360  142.9287  162.1399 C.3     1  UNL1        0.1162
     26 O         140.4788  144.3064  162.5347 O.3     1  UNL1       -0.3820
     27 H         139.7374  144.9244  162.4383 H       1  UNL1        0.2107
     28 C         138.9310  139.1260  162.4014 C.ar    1  UNL1        0.2271
     29 C         139.3739  140.5037  162.7962 C.ar    1  UNL1        0.0559
     30 C         139.5932  141.5510  161.7451 C.ar    1  UNL1        0.0117
     31 C         139.3697  141.2206  160.2991 C.ar    1  UNL1        0.0559
     32 C         138.9269  139.8429  159.9043 C.ar    1  UNL1        0.2271
     33 N         138.7075  138.7956  160.9555 N.ar    1  UNL1       -0.1767
     34 O         138.7117  138.0787  163.4527 O.3     1  UNL1       -0.4602
     35 C         138.2819  138.6856  165.9421 C.3     1  UNL1        0.0512
     36 C         139.2269  138.2941  164.8449 C.3     1  UNL1        0.2072
     37 O         138.7034  139.5126  158.4583 O.3     1  UNL1       -0.4602
     38 C         139.6983  138.6675  157.7196 C.3     1  UNL1        0.2072
     39 C         141.0938  138.5166  158.2488 C.3     1  UNL1        0.0512
     40 C         138.6633  143.4552  161.8423 C.3     1  UNL1        0.0491
     41 C         137.9244  144.2504  162.8774 C.3     1  UNL1        0.0750
     42 N         138.0330  143.8795  164.3267 N.3     1  UNL1       -0.2702
     43 C         137.5898  142.5231  164.7890 C.3     1  UNL1        0.0897
     44 C         138.5848  144.8649  165.3138 C.3     1  UNL1        0.0897
@<TRIPOS>BOND
     1    35    36    1
     2    36    34    1
     3    34    28    1
     4    28    29   ar
     5    29    30   ar
     6    30    25    1
     7    25    26    1
     8    25    40    1
     9    40    41    1
    10    41    42    1
    11    42    43    1
    12    42    44    1
    13    25     1    1
    14     1     2    1
    15     2     3   ar
    16     3     4   ar
    17     4     5   ar
    18     5     6   ar
    19     6     7    1
    20     6     8   ar
    21     8     9   ar
    22     9    10   ar
    23    10    11   ar
    24    11    12   ar
    25    12    13    1
    26    13    14    1
    27     1    15    1
    28    15    16   ar
    29    16    17   ar
    30    17    18   ar
    31    18    19   ar
    32    19    20   ar
    33    20    21    1
    34    21    22    1
    35    22    23    1
    36    23    24    1
    37    30    31   ar
    38    31    32   ar
    39    32    37    1
    40    37    38    1
    41    38    39    1
    42    32    33   ar
    43    33    28   ar
    44    12     2   ar
    45    20    15   ar
    46    10     4   ar
    47    24    19    1
    48    26    27    1
@<TRIPOS>MOLECULE
*****
 44 48 0 0 0
SMALL
GASTEIGER

@<TRIPOS>ATOM
      1 C         141.6318  141.4024  163.3020 C.3     1  UNL1        0.0807
      2 C         142.0495  141.6251  164.7255 C.ar    1  UNL1        0.0375
      3 C         141.2542  141.0198  165.8439 C.ar    1  UNL1        0.0023
      4 C         141.6719  141.2425  167.2673 C.ar    1  UNL1        0.0181
      5 C         140.8765  140.6372  168.3858 C.ar    1  UNL1        0.0082
      6 C         141.2943  140.8599  169.8091 C.ar    1  UNL1        0.0347
      7 BR        140.4989  140.2546  170.9277 Br      1  UNL1       -0.0490
      8 C         142.5073  141.6878  170.1140 C.ar    1  UNL1        0.0082
      9 C         143.3027  142.2931  168.9955 C.ar    1  UNL1        0.0197
     10 C         142.8850  142.0704  167.5722 C.ar    1  UNL1        0.0844
     11 N         143.6803  142.6757  166.4536 N.ar    1  UNL1       -0.2119
     12 C         143.2626  142.4530  165.0303 C.ar    1  UNL1        0.2211
     13 O         144.0580  143.0583  163.9117 O.3     1  UNL1       -0.4563
     14 C         145.3247  142.2596  163.8260 C.3     1  UNL1        0.2542
     15 C         142.4718  140.5490  162.3987 C.ar    1  UNL1        0.0213
     16 C         142.7965  139.1375  162.7887 C.ar    1  UNL1       -0.0007
     17 C         143.6366  138.2841  161.8853 C.ar    1  UNL1        0.0030
     18 C         144.1519  138.8422  160.5919 C.ar    1  UNL1        0.0400
     19 C         143.8271  140.2538  160.2019 C.ar    1  UNL1        0.1721
     20 C         142.9871  141.1072  161.1052 C.ar    1  UNL1        0.1687
     21 O         142.6624  142.5187  160.7152 O.3     1  UNL1       -0.4687
     22 C         143.1777  143.0768  159.4218 C.3     1  UNL1        0.2526
     23 C         144.0177  142.2234  158.5184 C.3     1  UNL1        0.2526
     24 O         144.3424  140.8119  158.9084 O.3     1  UNL1       -0.4684
     25 C         140.3741  142.0331  162.7821 C.3     1  UNL1        0.1162
     26 O         140.9465  143.3938  163.0482 O.3     1  UNL1       -0.3820
     27 H         140.3031  144.0717  162.7885 H       1  UNL1        0.2107
     28 C         138.8277  138.4299  163.3950 C.ar    1  UNL1        0.2271
     29 C         139.4001  139.7906  163.6611 C.ar    1  UNL1        0.0559
     30 C         139.8017  140.6724  162.5160 C.ar    1  UNL1        0.0117
     31 C         139.6310  140.1934  161.1049 C.ar    1  UNL1        0.0559
     32 C         139.0586  138.8326  160.8388 C.ar    1  UNL1        0.2271
     33 N         138.6570  137.9509  161.9838 N.ar    1  UNL1       -0.1767
     34 O         138.4261  137.5482  164.5401 O.3     1  UNL1       -0.4602
     35 C         137.7713  138.6264  166.8113 C.3     1  UNL1        0.0512
     36 C         138.7818  137.9349  165.9451 C.3     1  UNL1        0.2072
     37 O         138.8879  138.3537  159.4275 O.3     1  UNL1       -0.4602
     38 C         139.8032  138.8542  158.3497 C.3     1  UNL1        0.2072
     39 C         141.2201  138.3663  158.2827 C.3     1  UNL1        0.0512
     40 C         139.1164  142.6638  162.2622 C.3     1  UNL1        0.0491
     41 C         139.1480  144.0607  161.7165 C.3     1  UNL1        0.0750
     42 N         139.6619  144.3129  160.3300 N.3     1  UNL1       -0.2702
     43 C         140.4173  145.5730  160.0278 C.3     1  UNL1        0.0897
     44 C         139.4203  143.3049  159.2458 C.3     1  UNL1        0.0897
@<TRIPOS>BOND
     1    35    36    1
     2    36    34    1
     3    34    28    1
     4    28    29   ar
     5    29    30   ar
     6    30    25    1
     7    25    26    1
     8    25    40    1
     9    40    41    1
    10    41    42    1
    11    42    43    1
    12    42    44    1
    13    25     1    1
    14     1     2    1
    15     2     3   ar
    16     3     4   ar
    17     4     5   ar
    18     5     6   ar
    19     6     7    1
    20     6     8   ar
    21     8     9   ar
    22     9    10   ar
    23    10    11   ar
    24    11    12   ar
    25    12    13    1
    26    13    14    1
    27     1    15    1
    28    15    16   ar
    29    16    17   ar
    30    17    18   ar
    31    18    19   ar
    32    19    20   ar
    33    20    21    1
    34    21    22    1
    35    22    23    1
    36    23    24    1
    37    30    31   ar
    38    31    32   ar
    39    32    37    1
    40    37    38    1
    41    38    39    1
    42    32    33   ar
    43    33    28   ar
    44    12     2   ar
    45    20    15   ar
    46    10     4   ar
    47    24    19    1
    48    26    27    1
@<TRIPOS>MOLECULE
*****
 44 48 0 0 0
SMALL
GASTEIGER

@<TRIPOS>ATOM
      1 C         141.3855  142.3676  162.4112 C.3     1  UNL1        0.0807
      2 C         141.8794  142.3337  163.8272 C.ar    1  UNL1        0.0375
      3 C         141.0591  141.6678  164.8919 C.ar    1  UNL1        0.0023
      4 C         141.5530  141.6339  166.3079 C.ar    1  UNL1        0.0181
      5 C         140.7327  140.9680  167.3726 C.ar    1  UNL1        0.0082
      6 C         141.2266  140.9341  168.7885 C.ar    1  UNL1        0.0347
      7 BR        140.4063  140.2682  169.8533 Br      1  UNL1       -0.0490
      8 C         142.5409  141.5661  169.1397 C.ar    1  UNL1        0.0082
      9 C         143.3612  142.2320  168.0750 C.ar    1  UNL1        0.0197
     10 C         142.8673  142.2659  166.6591 C.ar    1  UNL1        0.0844
     11 N         143.6876  142.9318  165.5943 N.ar    1  UNL1       -0.2119
     12 C         143.1937  142.9657  164.1784 C.ar    1  UNL1        0.2211
     13 O         144.0140  143.6316  163.1136 O.3     1  UNL1       -0.4563
     14 C         143.8006  145.1059  163.2890 C.3     1  UNL1        0.2542
     15 C         142.2744  141.9038  161.2955 C.ar    1  UNL1        0.0213
     16 C         142.5949  142.8280  160.1584 C.ar    1  UNL1       -0.0007
     17 C         143.4838  142.3642  159.0427 C.ar    1  UNL1        0.0030
     18 C         144.0521  140.9761  159.0641 C.ar    1  UNL1        0.0400
     19 C         143.7315  140.0519  160.2013 C.ar    1  UNL1        0.1721
     20 C         142.8426  140.5158  161.3170 C.ar    1  UNL1        0.1687
     21 O         142.5220  139.5915  162.4540 O.3     1  UNL1       -0.4687
     22 C         143.0903  138.2035  162.4755 C.3     1  UNL1        0.2526
     23 C         143.9791  137.7397  161.3598 C.3     1  UNL1        0.2526
     24 O         144.2997  138.6639  160.2227 O.3     1  UNL1       -0.4684
     25 C         140.0027  142.8654  162.1110 C.3     1  UNL1        0.1162
     26 O         140.4149  144.2513  162.5103 O.3     1  UNL1       -0.3820
     27 H         139.6607  144.8535  162.4133 H       1  UNL1        0.2107
     28 C         139.0117  139.7493  159.8620 C.ar    1  UNL1        0.2271
     29 C         139.4239  141.1352  160.2613 C.ar    1  UNL1        0.0559
     30 C         139.5905  141.4795  161.7117 C.ar    1  UNL1        0.0117
     31 C         139.3450  140.4379  162.7628 C.ar    1  UNL1        0.0559
     32 C         138.9328  139.0521  162.3635 C.ar    1  UNL1        0.2271
     33 N         138.7662  138.7077  160.9131 N.ar    1  UNL1       -0.1767
     34 O         138.8451  139.4050  158.4115 O.3     1  UNL1       -0.4602
     35 C         141.2289  138.4513  158.0139 C.3     1  UNL1        0.0512
     36 C         139.7497  138.3936  157.7721 C.3     1  UNL1        0.2072
     37 O         138.6872  138.0105  163.4146 O.3     1  UNL1       -0.4602
     38 C         139.2175  138.2074  164.8039 C.3     1  UNL1        0.2072
     39 C         138.2863  138.5947  165.9143 C.3     1  UNL1        0.0512
     40 C         138.6199  143.3631  161.8107 C.3     1  UNL1        0.0491
     41 C         137.8775  144.1755  162.8299 C.3     1  UNL1        0.0750
     42 N         137.9858  143.8324  164.2861 N.3     1  UNL1       -0.2702
     43 C         137.5687  142.4752  164.7699 C.3     1  UNL1        0.0897
     44 C         138.5111  144.8464  165.2586 C.3     1  UNL1        0.0897
@<TRIPOS>BOND
     1    35    36    1
     2    36    34    1
     3    34    28    1
     4    28    29   ar
     5    29    30   ar
     6    30    25    1
     7    25    26    1
     8    25    40    1
     9    40    41    1
    10    41    42    1
    11    42    43    1
    12    42    44    1
    13    25     1    1
    14     1     2    1
    15     2     3   ar
    16     3     4   ar
    17     4     5   ar
    18     5     6   ar
    19     6     7    1
    20     6     8   ar
    21     8     9   ar
    22     9    10   ar
    23    10    11   ar
    24    11    12   ar
    25    12    13    1
    26    13    14    1
    27     1    15    1
    28    15    16   ar
    29    16    17   ar
    30    17    18   ar
    31    18    19   ar
    32    19    20   ar
    33    20    21    1
    34    21    22    1
    35    22    23    1
    36    23    24    1
    37    30    31   ar
    38    31    32   ar
    39    32    37    1
    40    37    38    1
    41    38    39    1
    42    32    33   ar
    43    33    28   ar
    44    12     2   ar
    45    20    15   ar
    46    10     4   ar
    47    24    19    1
    48    26    27    1
@<TRIPOS>MOLECULE
*****
 44 48 0 0 0
SMALL
GASTEIGER

@<TRIPOS>ATOM
      1 C         141.5118  140.1782  162.7696 C.3     1  UNL1        0.0807
      2 C         141.7359  139.9728  164.2386 C.ar    1  UNL1        0.0375
      3 C         140.6375  140.2751  165.2142 C.ar    1  UNL1        0.0023
      4 C         140.8616  140.0698  166.6832 C.ar    1  UNL1        0.0181
      5 C         139.7631  140.3721  167.6589 C.ar    1  UNL1        0.0082
      6 C         139.9873  140.1667  169.1277 C.ar    1  UNL1        0.0347
      7 BR        138.8888  140.4690  170.1035 Br      1  UNL1       -0.0490
      8 C         141.3098  139.6591  169.6209 C.ar    1  UNL1        0.0082
      9 C         142.4082  139.3568  168.6452 C.ar    1  UNL1        0.0197
     10 C         142.1841  139.5622  167.1763 C.ar    1  UNL1        0.0844
     11 N         143.2826  139.2599  166.2006 N.ar    1  UNL1       -0.2119
     12 C         143.0585  139.4652  164.7317 C.ar    1  UNL1        0.2211
     13 O         144.1569  139.1629  163.7559 O.3     1  UNL1       -0.4563
     14 C         145.2985  140.0625  164.1269 C.3     1  UNL1        0.2542
     15 C         142.4564  141.0344  161.9793 C.ar    1  UNL1        0.0213
     16 C         143.0068  140.5375  160.6755 C.ar    1  UNL1       -0.0007
     17 C         143.9515  141.3937  159.8851 C.ar    1  UNL1        0.0030
     18 C         144.3457  142.7468  160.3987 C.ar    1  UNL1        0.0400
     19 C         143.7953  143.2437  161.7026 C.ar    1  UNL1        0.1721
     20 C         142.8507  142.3875  162.4929 C.ar    1  UNL1        0.1687
     21 O         142.3003  142.8843  163.7968 O.3     1  UNL1       -0.4687
     22 C         142.6945  144.2374  164.3104 C.3     1  UNL1        0.2526
     23 C         143.6391  145.0936  163.5201 C.3     1  UNL1        0.2526
     24 O         144.1895  144.5967  162.2162 O.3     1  UNL1       -0.4684
     25 C         140.3431  139.5273  162.0910 C.3     1  UNL1        0.1162
     26 O         141.0285  138.1965  162.1871 O.3     1  UNL1       -0.3820
     27 H         140.4637  137.5128  161.7941 H       1  UNL1        0.2107
     28 C         138.1482  142.6926  163.0465 C.ar    1  UNL1        0.2271
     29 C         138.8336  141.3618  163.1426 C.ar    1  UNL1        0.0559
     30 C         139.6577  140.8581  161.9950 C.ar    1  UNL1        0.0117
     31 C         139.7965  141.6851  160.7513 C.ar    1  UNL1        0.0559
     32 C         139.1111  143.0159  160.6553 C.ar    1  UNL1        0.2271
     33 N         138.2870  143.5197  161.8029 N.ar    1  UNL1       -0.1767
     34 O         137.3240  143.1963  164.1941 O.3     1  UNL1       -0.4602
     35 C         139.2138  144.7753  165.0221 C.3     1  UNL1        0.0512
     36 C         137.7593  144.4154  164.9520 C.3     1  UNL1        0.2072
     37 O         139.2499  143.8430  159.4116 O.3     1  UNL1       -0.4602
     38 C         140.2094  144.9956  159.3805 C.3     1  UNL1        0.2072
     39 C         141.0728  145.2851  160.5725 C.3     1  UNL1        0.0512
     40 C         139.1744  138.8764  161.4125 C.3     1  UNL1        0.0491
     41 C         139.3968  137.9842  160.2274 C.3     1  UNL1        0.0750
     42 N         139.9886  138.5438  158.9678 N.3     1  UNL1       -0.2702
     43 C         139.1719  139.4475  158.0925 C.3     1  UNL1        0.0897
     44 C         141.3971  138.1996  158.5835 C.3     1  UNL1        0.0897
@<TRIPOS>BOND
     1    35    36    1
     2    36    34    1
     3    34    28    1
     4    28    29   ar
     5    29    30   ar
     6    30    25    1
     7    25    26    1
     8    25    40    1
     9    40    41    1
    10    41    42    1
    11    42    43    1
    12    42    44    1
    13    25     1    1
    14     1     2    1
    15     2     3   ar
    16     3     4   ar
    17     4     5   ar
    18     5     6   ar
    19     6     7    1
    20     6     8   ar
    21     8     9   ar
    22     9    10   ar
    23    10    11   ar
    24    11    12   ar
    25    12    13    1
    26    13    14    1
    27     1    15    1
    28    15    16   ar
    29    16    17   ar
    30    17    18   ar
    31    18    19   ar
    32    19    20   ar
    33    20    21    1
    34    21    22    1
    35    22    23    1
    36    23    24    1
    37    30    31   ar
    38    31    32   ar
    39    32    37    1
    40    37    38    1
    41    38    39    1
    42    32    33   ar
    43    33    28   ar
    44    12     2   ar
    45    20    15   ar
    46    10     4   ar
    47    24    19    1
    48    26    27    1
@<TRIPOS>MOLECULE
*****
 44 48 0 0 0
SMALL
GASTEIGER

@<TRIPOS>ATOM
      1 C         141.9095  141.7442  162.4819 C.3     1  UNL1        0.0807
      2 C         142.2517  141.9106  163.9329 C.ar    1  UNL1        0.0375
      3 C         141.2254  141.6100  164.9848 C.ar    1  UNL1        0.0023
      4 C         141.5676  141.7764  166.4358 C.ar    1  UNL1        0.0181
      5 C         140.5413  141.4758  167.4876 C.ar    1  UNL1        0.0082
      6 C         140.8835  141.6422  168.9385 C.ar    1  UNL1        0.0347
      7 BR        139.8572  141.3417  169.9904 Br      1  UNL1       -0.0490
      8 C         142.2520  142.1091  169.3376 C.ar    1  UNL1        0.0082
      9 C         143.2783  142.4097  168.2858 C.ar    1  UNL1        0.0197
     10 C         142.9361  142.2433  166.8349 C.ar    1  UNL1        0.0844
     11 N         143.9624  142.5439  165.7829 N.ar    1  UNL1       -0.2119
     12 C         143.6202  142.3775  164.3320 C.ar    1  UNL1        0.2211
     13 O         144.6465  142.6781  163.2801 O.3     1  UNL1       -0.4563
     14 C         145.7056  141.6255  163.4233 C.3     1  UNL1        0.2542
     15 C         142.3985  140.5425  161.7291 C.ar    1  UNL1        0.0213
     16 C         142.1694  139.1670  162.2817 C.ar    1  UNL1       -0.0007
     17 C         142.6584  137.9652  161.5289 C.ar    1  UNL1        0.0030
     18 C         143.3763  138.1390  160.2234 C.ar    1  UNL1        0.0400
     19 C         143.6053  139.5147  159.6707 C.ar    1  UNL1        0.1721
     20 C         143.1164  140.7163  160.4236 C.ar    1  UNL1        0.1687
     21 O         143.3454  142.0919  159.8709 O.3     1  UNL1       -0.4687
     22 C         144.0633  142.2657  158.5654 C.3     1  UNL1        0.2526
     23 C         144.5522  141.0640  157.8125 C.3     1  UNL1        0.2526
     24 O         144.3232  139.6885  158.3652 O.3     1  UNL1       -0.4684
     25 C         141.0785  142.7796  161.7839 C.3     1  UNL1        0.1162
     26 O         142.1965  143.7701  161.9219 O.3     1  UNL1       -0.3820
     27 H         141.9308  144.6148  161.5261 H       1  UNL1        0.2107
     28 C         138.3200  140.4421  160.1478 C.ar    1  UNL1        0.2271
     29 C         139.4380  141.4325  160.2858 C.ar    1  UNL1        0.0559
     30 C         139.9605  141.7891  161.6459 C.ar    1  UNL1        0.0117
     31 C         139.3649  141.1553  162.8679 C.ar    1  UNL1        0.0559
     32 C         138.2469  140.1648  162.7299 C.ar    1  UNL1        0.2271
     33 N         137.7244  139.8082  161.3698 N.ar    1  UNL1       -0.1767
     34 O         137.7976  140.0854  158.7876 O.3     1  UNL1       -0.4602
     35 C         137.4236  142.0399  157.1172 C.3     1  UNL1        0.0512
     36 C         138.2362  140.8697  157.5865 C.3     1  UNL1        0.2072
     37 O         137.6513  139.5310  163.9520 O.3     1  UNL1       -0.4602
     38 C         138.5434  139.0489  165.0573 C.3     1  UNL1        0.2072
     39 C         138.0128  138.9407  166.4562 C.3     1  UNL1        0.0512
     40 C         140.2474  143.8150  161.0858 C.3     1  UNL1        0.0491
     41 C         139.6888  144.9735  161.8576 C.3     1  UNL1        0.0750
     42 N         138.9923  144.7378  163.1650 N.3     1  UNL1       -0.2702
     43 C         137.5584  144.2978  163.1823 C.3     1  UNL1        0.0897
     44 C         139.7296  144.9421  164.4552 C.3     1  UNL1        0.0897
@<TRIPOS>BOND
     1    35    36    1
     2    36    34    1
     3    34    28    1
     4    28    29   ar
     5    29    30   ar
     6    30    25    1
     7    25    26    1
     8    25    40    1
     9    40    41    1
    10    41    42    1
    11    42    43    1
    12    42    44    1
    13    25     1    1
    14     1     2    1
    15     2     3   ar
    16     3     4   ar
    17     4     5   ar
    18     5     6   ar
    19     6     7    1
    20     6     8   ar
    21     8     9   ar
    22     9    10   ar
    23    10    11   ar
    24    11    12   ar
    25    12    13    1
    26    13    14    1
    27     1    15    1
    28    15    16   ar
    29    16    17   ar
    30    17    18   ar
    31    18    19   ar
    32    19    20   ar
    33    20    21    1
    34    21    22    1
    35    22    23    1
    36    23    24    1
    37    30    31   ar
    38    31    32   ar
    39    32    37    1
    40    37    38    1
    41    38    39    1
    42    32    33   ar
    43    33    28   ar
    44    12     2   ar
    45    20    15   ar
    46    10     4   ar
    47    24    19    1
    48    26    27    1
