@<TRIPOS>MOLECULE
*****
 32 35 0 0 0
SMALL
GASTEIGER

@<TRIPOS>ATOM
      1 C         142.0472  138.0412  158.7081 C.ar    1  UNL1       -0.0014
      2 C         142.7204  137.7767  160.0222 C.ar    1  UNL1       -0.0012
      3 C         141.9811  138.0161  161.3052 C.ar    1  UNL1        0.0177
      4 C         140.5687  138.5201  161.2741 C.ar    1  UNL1        0.0883
      5 C         139.8955  138.7846  159.9600 C.ar    1  UNL1        0.1519
      6 C         140.6348  138.5452  158.6770 C.ar    1  UNL1        0.0355
      7 O         138.4830  139.2886  159.9289 O.3     1  UNL1       -0.4724
      8 C         137.7437  139.5280  161.2119 C.3     1  UNL1        0.2272
      9 C         138.4169  139.2635  162.5261 C.3     1  UNL1        0.1458
     10 N         139.8294  138.7595  162.5572 N.am    1  UNL1       -0.2486
     11 C         140.5025  138.4949  163.8712 C.2     1  UNL1        0.2529
     12 O         141.9150  137.9909  163.9023 O.2     1  UNL1       -0.2696
     13 C         139.7632  138.7344  165.1543 C.ar    1  UNL1        0.0547
     14 C         138.5470  137.9200  165.4823 C.ar    1  UNL1        0.0046
     15 C         137.8078  138.1594  166.7653 C.ar    1  UNL1        0.0010
     16 C         138.2848  139.2133  167.7203 C.ar    1  UNL1        0.0114
     17 C         139.5010  140.0276  167.3923 C.ar    1  UNL1        0.0578
     18 CL        139.9779  141.0814  168.3473 Cl      1  UNL1       -0.0822
     19 C         140.2402  139.7882  166.1093 C.ar    1  UNL1        0.0159
     20 C         142.9423  138.9137  156.4305 C.3     1  UNL1        0.0262
     21 C         142.7865  137.8018  157.4251 C.3     1  UNL1        0.0945
     22 N         143.3701  136.4504  157.1367 N.am    1  UNL1       -0.2987
     23 C         142.5755  135.4397  156.3640 C.2     1  UNL1        0.2460
     24 O         141.1972  135.7804  155.8796 O.2     1  UNL1       -0.2701
     25 H         144.2746  136.2267  157.4545 H       1  UNL1        0.1500
     26 C         143.1590  134.0883  156.0756 C.ar    1  UNL1        0.0534
     27 C         144.1312  133.4705  157.0365 C.ar    1  UNL1        0.0054
     28 C         144.7147  132.1191  156.7481 C.ar    1  UNL1        0.0115
     29 C         144.3260  131.3855  155.4988 C.ar    1  UNL1        0.0577
     30 CL        144.9096  130.0340  155.2104 Cl      1  UNL1       -0.0822
     31 C         143.3539  132.0032  154.5379 C.ar    1  UNL1        0.0115
     32 C         142.7704  133.3546  154.8263 C.ar    1  UNL1        0.0054
@<TRIPOS>BOND
     1    21    20    1
     2    21    22    1
     3    22    23   am
     4    23    24    2
     5    23    26    1
     6    26    27   ar
     7    27    28   ar
     8    28    29   ar
     9    29    30    1
    10    29    31   ar
    11    31    32   ar
    12    21     1    1
    13     1     2   ar
    14     2     3   ar
    15     3     4   ar
    16     4     5   ar
    17     5     6   ar
    18     5     7    1
    19     7     8    1
    20     8     9    1
    21     9    10    1
    22    10    11   am
    23    11    12    2
    24    11    13    1
    25    13    14   ar
    26    14    15   ar
    27    15    16   ar
    28    16    17   ar
    29    17    18    1
    30    17    19   ar
    31    32    26   ar
    32     6     1   ar
    33    19    13   ar
    34    10     4    1
    35    22    25    1
@<TRIPOS>MOLECULE
*****
 32 35 0 0 0
SMALL
GASTEIGER

@<TRIPOS>ATOM
      1 C         141.2224  145.2363  157.2275 C.ar    1  UNL1       -0.0014
      2 C         142.3171  144.2975  157.6401 C.ar    1  UNL1       -0.0012
      3 C         142.4956  143.9430  159.0866 C.ar    1  UNL1        0.0177
      4 C         141.5794  144.5273  160.1206 C.ar    1  UNL1        0.0883
      5 C         140.4847  145.4662  159.7080 C.ar    1  UNL1        0.1519
      6 C         140.3062  145.8206  158.2615 C.ar    1  UNL1        0.0355
      7 O         139.5685  146.0505  160.7420 O.3     1  UNL1       -0.4724
      8 C         139.7469  145.6960  162.1885 C.3     1  UNL1        0.2272
      9 C         140.8417  144.7572  162.6011 C.3     1  UNL1        0.1458
     10 N         141.7579  144.1728  161.5672 N.am    1  UNL1       -0.2486
     11 C         142.8526  143.2340  161.9797 C.2     1  UNL1        0.2529
     12 O         143.7688  142.6497  160.9457 O.2     1  UNL1       -0.2696
     13 C         143.0311  142.8795  163.4263 C.ar    1  UNL1        0.0547
     14 C         144.0147  143.6369  164.2682 C.ar    1  UNL1        0.0046
     15 C         144.1932  143.2824  165.7147 C.ar    1  UNL1        0.0010
     16 C         143.3881  142.1705  166.3193 C.ar    1  UNL1        0.0114
     17 C         142.4045  141.4131  165.4773 C.ar    1  UNL1        0.0578
     18 CL        141.5994  140.3012  166.0819 Cl      1  UNL1       -0.0822
     19 C         142.2260  141.7676  164.0308 C.ar    1  UNL1        0.0159
     20 C         141.0442  144.5120  154.7388 C.3     1  UNL1        0.0262
     21 C         141.0439  145.5908  155.7810 C.3     1  UNL1        0.0945
     22 N         140.8650  147.0241  155.3766 N.am    1  UNL1       -0.2987
     23 C         139.4882  147.5704  155.1398 C.2     1  UNL1        0.2460
     24 O         138.2903  146.6833  155.3074 O.2     1  UNL1       -0.2701
     25 H         141.6512  147.6064  155.2666 H       1  UNL1        0.1500
     26 C         139.3093  149.0037  154.7355 C.ar    1  UNL1        0.0534
     27 C         139.7855  149.4688  153.3912 C.ar    1  UNL1        0.0054
     28 C         139.6066  150.9022  152.9868 C.ar    1  UNL1        0.0115
     29 C         138.9516  151.8705  153.9268 C.ar    1  UNL1        0.0577
     30 CL        138.7727  153.3038  153.5224 Cl      1  UNL1       -0.0822
     31 C         138.4755  151.4054  155.2710 C.ar    1  UNL1        0.0115
     32 C         138.6544  149.9720  155.6754 C.ar    1  UNL1        0.0054
@<TRIPOS>BOND
     1    21    20    1
     2    21    22    1
     3    22    23   am
     4    23    24    2
     5    23    26    1
     6    26    27   ar
     7    27    28   ar
     8    28    29   ar
     9    29    30    1
    10    29    31   ar
    11    31    32   ar
    12    21     1    1
    13     1     2   ar
    14     2     3   ar
    15     3     4   ar
    16     4     5   ar
    17     5     6   ar
    18     5     7    1
    19     7     8    1
    20     8     9    1
    21     9    10    1
    22    10    11   am
    23    11    12    2
    24    11    13    1
    25    13    14   ar
    26    14    15   ar
    27    15    16   ar
    28    16    17   ar
    29    17    18    1
    30    17    19   ar
    31    32    26   ar
    32     6     1   ar
    33    19    13   ar
    34    10     4    1
    35    22    25    1
@<TRIPOS>MOLECULE
*****
 32 35 0 0 0
SMALL
GASTEIGER

@<TRIPOS>ATOM
      1 C         140.9859  143.8716  159.1632 C.ar    1  UNL1       -0.0014
      2 C         141.5024  142.5609  159.6782 C.ar    1  UNL1       -0.0012
      3 C         141.0305  142.0368  161.0020 C.ar    1  UNL1        0.0177
      4 C         140.0420  142.8234  161.8108 C.ar    1  UNL1        0.0883
      5 C         139.5255  144.1341  161.2959 C.ar    1  UNL1        0.1519
      6 C         139.9975  144.6582  159.9720 C.ar    1  UNL1        0.0355
      7 O         138.5370  144.9207  162.1047 O.3     1  UNL1       -0.4724
      8 C         138.0651  144.3966  163.4285 C.3     1  UNL1        0.2272
      9 C         138.5816  143.0858  163.9435 C.3     1  UNL1        0.1458
     10 N         139.5700  142.2992  163.1347 N.am    1  UNL1       -0.2486
     11 C         140.0865  140.9885  163.6497 C.2     1  UNL1        0.2529
     12 O         141.0750  140.2019  162.8409 O.2     1  UNL1       -0.2696
     13 C         139.6146  140.4643  164.9736 C.ar    1  UNL1        0.0547
     14 C         138.4664  139.5010  165.0326 C.ar    1  UNL1        0.0046
     15 C         137.9945  138.9769  166.3564 C.ar    1  UNL1        0.0010
     16 C         138.6708  139.4161  167.6212 C.ar    1  UNL1        0.0114
     17 C         139.8190  140.3795  167.5622 C.ar    1  UNL1        0.0578
     18 CL        140.4953  140.8187  168.8270 Cl      1  UNL1       -0.0822
     19 C         140.2909  140.9036  166.2383 C.ar    1  UNL1        0.0159
     20 C         142.2888  143.5274  156.9419 C.3     1  UNL1        0.0262
     21 C         141.4579  144.3958  157.8393 C.3     1  UNL1        0.0945
     22 N         141.0988  145.7883  157.4129 N.am    1  UNL1       -0.2987
     23 C         139.8922  146.0218  156.5530 C.2     1  UNL1        0.2460
     24 O         139.0445  144.8626  156.1195 O.2     1  UNL1       -0.2701
     25 H         141.6552  146.5491  157.6974 H       1  UNL1        0.1500
     26 C         139.5331  147.4143  156.1266 C.ar    1  UNL1        0.0534
     27 C         138.7341  148.2959  157.0402 C.ar    1  UNL1        0.0054
     28 C         138.3750  149.6885  156.6138 C.ar    1  UNL1        0.0115
     29 C         138.8150  150.1995  155.2738 C.ar    1  UNL1        0.0577
     30 CL        138.4560  151.5921  154.8474 Cl      1  UNL1       -0.0822
     31 C         139.6140  149.3179  154.3604 C.ar    1  UNL1        0.0115
     32 C         139.9730  147.9254  154.7868 C.ar    1  UNL1        0.0054
@<TRIPOS>BOND
     1    21    20    1
     2    21    22    1
     3    22    23   am
     4    23    24    2
     5    23    26    1
     6    26    27   ar
     7    27    28   ar
     8    28    29   ar
     9    29    30    1
    10    29    31   ar
    11    31    32   ar
    12    21     1    1
    13     1     2   ar
    14     2     3   ar
    15     3     4   ar
    16     4     5   ar
    17     5     6   ar
    18     5     7    1
    19     7     8    1
    20     8     9    1
    21     9    10    1
    22    10    11   am
    23    11    12    2
    24    11    13    1
    25    13    14   ar
    26    14    15   ar
    27    15    16   ar
    28    16    17   ar
    29    17    18    1
    30    17    19   ar
    31    32    26   ar
    32     6     1   ar
    33    19    13   ar
    34    10     4    1
    35    22    25    1
@<TRIPOS>MOLECULE
*****
 32 35 0 0 0
SMALL
GASTEIGER

@<TRIPOS>ATOM
      1 C         138.5384  139.7119  164.7015 C.ar    1  UNL1       -0.0014
      2 C         138.2323  141.1121  164.2593 C.ar    1  UNL1       -0.0012
      3 C         138.2898  141.4682  162.8033 C.ar    1  UNL1        0.0177
      4 C         138.6532  140.4241  161.7896 C.ar    1  UNL1        0.0883
      5 C         138.9593  139.0238  162.2318 C.ar    1  UNL1        0.1519
      6 C         138.9018  138.6677  163.6877 C.ar    1  UNL1        0.0355
      7 O         139.3227  137.9797  161.2180 O.3     1  UNL1       -0.4724
      8 C         139.3802  138.3358  159.7621 C.3     1  UNL1        0.2272
      9 C         139.0741  139.7361  159.3198 C.3     1  UNL1        0.1458
     10 N         138.7107  140.7803  160.3335 N.am    1  UNL1       -0.2486
     11 C         138.4047  142.1805  159.8913 C.2     1  UNL1        0.2529
     12 O         138.0412  143.2246  160.9051 O.2     1  UNL1       -0.2696
     13 C         138.4621  142.5367  158.4353 C.ar    1  UNL1        0.0547
     14 C         139.6536  143.2650  157.8878 C.ar    1  UNL1        0.0046
     15 C         139.7110  143.6211  156.4319 C.ar    1  UNL1        0.0010
     16 C         138.5769  143.2490  155.5234 C.ar    1  UNL1        0.0114
     17 C         137.3853  142.5207  156.0709 C.ar    1  UNL1        0.0578
     18 CL        136.2512  142.1485  155.1625 Cl      1  UNL1       -0.0822
     19 C         137.3280  142.1645  157.5269 C.ar    1  UNL1        0.0159
     20 C         137.7410  138.1285  166.6008 C.3     1  UNL1        0.0262
     21 C         138.4809  139.3557  166.1575 C.3     1  UNL1        0.0945
     22 N         139.1634  140.2267  167.1701 N.am    1  UNL1       -0.2987
     23 C         140.6586  140.3463  167.1705 C.2     1  UNL1        0.2460
     24 O         141.4714  139.5949  166.1581 O.2     1  UNL1       -0.2701
     25 H         138.6300  140.7199  167.8346 H       1  UNL1        0.1500
     26 C         141.3411  141.2174  168.1831 C.ar    1  UNL1        0.0534
     27 C         142.7280  140.8831  168.6469 C.ar    1  UNL1        0.0054
     28 C         143.4105  141.7541  169.6595 C.ar    1  UNL1        0.0115
     29 C         142.7062  142.9594  170.2084 C.ar    1  UNL1        0.0577
     30 CL        143.3887  143.8305  171.2211 Cl      1  UNL1       -0.0822
     31 C         141.3194  143.2936  169.7447 C.ar    1  UNL1        0.0115
     32 C         140.6369  142.4226  168.7320 C.ar    1  UNL1        0.0054
@<TRIPOS>BOND
     1    21    20    1
     2    21    22    1
     3    22    23   am
     4    23    24    2
     5    23    26    1
     6    26    27   ar
     7    27    28   ar
     8    28    29   ar
     9    29    30    1
    10    29    31   ar
    11    31    32   ar
    12    21     1    1
    13     1     2   ar
    14     2     3   ar
    15     3     4   ar
    16     4     5   ar
    17     5     6   ar
    18     5     7    1
    19     7     8    1
    20     8     9    1
    21     9    10    1
    22    10    11   am
    23    11    12    2
    24    11    13    1
    25    13    14   ar
    26    14    15   ar
    27    15    16   ar
    28    16    17   ar
    29    17    18    1
    30    17    19   ar
    31    32    26   ar
    32     6     1   ar
    33    19    13   ar
    34    10     4    1
    35    22    25    1
@<TRIPOS>MOLECULE
*****
 32 35 0 0 0
SMALL
GASTEIGER

@<TRIPOS>ATOM
      1 C         141.8200  138.0519  157.9211 C.ar    1  UNL1       -0.0014
      2 C         142.5482  137.7784  159.2037 C.ar    1  UNL1       -0.0012
      3 C         141.8830  138.0596  160.5183 C.ar    1  UNL1        0.0177
      4 C         140.4897  138.6143  160.5505 C.ar    1  UNL1        0.0883
      5 C         139.7616  138.8878  159.2679 C.ar    1  UNL1        0.1519
      6 C         140.4267  138.6066  157.9532 C.ar    1  UNL1        0.0355
      7 O         138.3683  139.4424  159.3000 O.3     1  UNL1       -0.4724
      8 C         137.7031  139.7236  160.6147 C.3     1  UNL1        0.2272
      9 C         138.4312  139.4501  161.8974 C.3     1  UNL1        0.1458
     10 N         139.8245  138.8955  161.8652 N.am    1  UNL1       -0.2486
     11 C         140.5527  138.6220  163.1478 C.2     1  UNL1        0.2529
     12 O         141.9460  138.0673  163.1157 O.2     1  UNL1       -0.2696
     13 C         139.8875  138.9032  164.4626 C.ar    1  UNL1        0.0547
     14 C         140.1861  140.1765  165.1970 C.ar    1  UNL1        0.0046
     15 C         139.5209  140.4576  166.5117 C.ar    1  UNL1        0.0010
     16 C         138.5572  139.4655  167.0920 C.ar    1  UNL1        0.0114
     17 C         138.2586  138.1921  166.3575 C.ar    1  UNL1        0.0578
     18 CL        137.2948  137.2000  166.9378 Cl      1  UNL1       -0.0822
     19 C         138.9237  137.9110  165.0428 C.ar    1  UNL1        0.0159
     20 C         143.6465  138.6081  156.1591 C.3     1  UNL1        0.0262
     21 C         142.4852  137.7707  156.6063 C.3     1  UNL1        0.0945
     22 N         141.9890  136.6521  155.7389 N.am    1  UNL1       -0.2987
     23 C         142.4448  135.2461  155.9944 C.2     1  UNL1        0.2460
     24 O         143.3968  134.9586  157.1175 O.2     1  UNL1       -0.2701
     25 H         141.3642  136.8407  155.0018 H       1  UNL1        0.1500
     26 C         141.9486  134.1274  155.1270 C.ar    1  UNL1        0.0534
     27 C         141.5913  134.3913  153.6942 C.ar    1  UNL1        0.0054
     28 C         141.0951  133.2726  152.8268 C.ar    1  UNL1        0.0115
     29 C         140.9563  131.8901  153.3921 C.ar    1  UNL1        0.0577
     30 CL        140.4601  130.7715  152.5247 Cl      1  UNL1       -0.0822
     31 C         141.3136  131.6264  154.8248 C.ar    1  UNL1        0.0115
     32 C         141.8097  132.7450  155.6923 C.ar    1  UNL1        0.0054
@<TRIPOS>BOND
     1    21    20    1
     2    21    22    1
     3    22    23   am
     4    23    24    2
     5    23    26    1
     6    26    27   ar
     7    27    28   ar
     8    28    29   ar
     9    29    30    1
    10    29    31   ar
    11    31    32   ar
    12    21     1    1
    13     1     2   ar
    14     2     3   ar
    15     3     4   ar
    16     4     5   ar
    17     5     6   ar
    18     5     7    1
    19     7     8    1
    20     8     9    1
    21     9    10    1
    22    10    11   am
    23    11    12    2
    24    11    13    1
    25    13    14   ar
    26    14    15   ar
    27    15    16   ar
    28    16    17   ar
    29    17    18    1
    30    17    19   ar
    31    32    26   ar
    32     6     1   ar
    33    19    13   ar
    34    10     4    1
    35    22    25    1
@<TRIPOS>MOLECULE
*****
 32 35 0 0 0
SMALL
GASTEIGER

@<TRIPOS>ATOM
      1 C         142.5905  138.7849  159.2511 C.ar    1  UNL1       -0.0014
      2 C         143.5075  139.6138  160.1008 C.ar    1  UNL1       -0.0012
      3 C         143.2276  139.7795  161.5651 C.ar    1  UNL1        0.0177
      4 C         142.0307  139.1163  162.1796 C.ar    1  UNL1        0.0883
      5 C         141.1137  138.2875  161.3299 C.ar    1  UNL1        0.1519
      6 C         141.3935  138.1218  159.8656 C.ar    1  UNL1        0.0355
      7 O         139.9167  137.6244  161.9445 O.3     1  UNL1       -0.4724
      8 C         139.6369  137.7901  163.4087 C.3     1  UNL1        0.2272
      9 C         140.5539  138.6190  164.2585 C.3     1  UNL1        0.1458
     10 N         141.7508  139.2821  163.6440 N.am    1  UNL1       -0.2486
     11 C         142.6679  140.1109  164.4937 C.2     1  UNL1        0.2529
     12 O         143.8648  140.7740  163.8792 O.2     1  UNL1       -0.2696
     13 C         142.3880  140.2766  165.9581 C.ar    1  UNL1        0.0547
     14 C         142.8708  139.2461  166.9352 C.ar    1  UNL1        0.0046
     15 C         142.5910  139.4119  168.3995 C.ar    1  UNL1        0.0010
     16 C         141.8283  140.6082  168.8866 C.ar    1  UNL1        0.0114
     17 C         141.3454  141.6387  167.9094 C.ar    1  UNL1        0.0578
     18 CL        140.5827  142.8349  168.3965 Cl      1  UNL1       -0.0822
     19 C         141.6253  141.4729  166.4452 C.ar    1  UNL1        0.0159
     20 C         142.8242  139.8093  156.8749 C.3     1  UNL1        0.0262
     21 C         142.8703  138.6192  157.7867 C.3     1  UNL1        0.0945
     22 N         143.1963  137.2633  157.2342 N.am    1  UNL1       -0.2987
     23 C         142.1087  136.4084  156.6544 C.2     1  UNL1        0.2460
     24 O         140.6950  136.9094  156.6271 O.2     1  UNL1       -0.2701
     25 H         144.1241  136.9345  157.2521 H       1  UNL1        0.1500
     26 C         142.4346  135.0525  156.1019 C.ar    1  UNL1        0.0534
     27 C         143.7368  134.3940  156.4498 C.ar    1  UNL1        0.0054
     28 C         144.0628  133.0381  155.8973 C.ar    1  UNL1        0.0115
     29 C         143.0866  132.3406  154.9969 C.ar    1  UNL1        0.0577
     30 CL        143.4125  130.9847  154.4445 Cl      1  UNL1       -0.0822
     31 C         141.7845  132.9991  154.6491 C.ar    1  UNL1        0.0115
     32 C         141.4585  134.3550  155.2016 C.ar    1  UNL1        0.0054
@<TRIPOS>BOND
     1    21    20    1
     2    21    22    1
     3    22    23   am
     4    23    24    2
     5    23    26    1
     6    26    27   ar
     7    27    28   ar
     8    28    29   ar
     9    29    30    1
    10    29    31   ar
    11    31    32   ar
    12    21     1    1
    13     1     2   ar
    14     2     3   ar
    15     3     4   ar
    16     4     5   ar
    17     5     6   ar
    18     5     7    1
    19     7     8    1
    20     8     9    1
    21     9    10    1
    22    10    11   am
    23    11    12    2
    24    11    13    1
    25    13    14   ar
    26    14    15   ar
    27    15    16   ar
    28    16    17   ar
    29    17    18    1
    30    17    19   ar
    31    32    26   ar
    32     6     1   ar
    33    19    13   ar
    34    10     4    1
    35    22    25    1
@<TRIPOS>MOLECULE
*****
 32 35 0 0 0
SMALL
GASTEIGER

@<TRIPOS>ATOM
      1 C         138.1908  142.4273  157.1714 C.ar    1  UNL1       -0.0014
      2 C         139.3557  143.3714  157.2115 C.ar    1  UNL1       -0.0012
      3 C         140.2338  143.4279  158.4263 C.ar    1  UNL1        0.0177
      4 C         139.9470  142.5402  159.6009 C.ar    1  UNL1        0.0883
      5 C         138.7821  141.5961  159.5608 C.ar    1  UNL1        0.1519
      6 C         137.9040  141.5397  158.3460 C.ar    1  UNL1        0.0355
      7 O         138.4953  140.7085  160.7355 O.3     1  UNL1       -0.4724
      8 C         139.3734  140.7649  161.9503 C.3     1  UNL1        0.2272
      9 C         140.5383  141.7091  161.9904 C.3     1  UNL1        0.1458
     10 N         140.8251  142.5967  160.8158 N.am    1  UNL1       -0.2486
     11 C         141.9900  143.5409  160.8559 C.2     1  UNL1        0.2529
     12 O         142.2768  144.4285  159.6812 O.2     1  UNL1       -0.2696
     13 C         142.8682  143.5974  162.0707 C.ar    1  UNL1        0.0547
     14 C         142.6784  144.6876  163.0833 C.ar    1  UNL1        0.0046
     15 C         143.5565  144.7441  164.2980 C.ar    1  UNL1        0.0010
     16 C         144.6244  143.7103  164.5002 C.ar    1  UNL1        0.0114
     17 C         144.8142  142.6200  163.4877 C.ar    1  UNL1        0.0578
     18 CL        145.8820  141.5862  163.6899 Cl      1  UNL1       -0.0822
     19 C         143.9360  142.5636  162.2729 C.ar    1  UNL1        0.0159
     20 C         137.9128  142.5185  154.5898 C.3     1  UNL1        0.0262
     21 C         137.3127  142.3708  155.9565 C.3     1  UNL1        0.0945
     22 N         135.8345  142.1666  156.1085 N.am    1  UNL1       -0.2987
     23 C         135.2488  140.7928  155.9686 C.2     1  UNL1        0.2460
     24 O         136.1415  139.6231  155.6767 O.2     1  UNL1       -0.2701
     25 H         135.2486  142.9342  156.3001 H       1  UNL1        0.1500
     26 C         133.7706  140.5885  156.1206 C.ar    1  UNL1        0.0534
     27 C         132.8118  141.4453  155.3482 C.ar    1  UNL1        0.0054
     28 C         131.3335  141.2411  155.5002 C.ar    1  UNL1        0.0115
     29 C         130.8141  140.1801  156.4246 C.ar    1  UNL1        0.0577
     30 CL        129.3359  139.9759  156.5766 Cl      1  UNL1       -0.0822
     31 C         131.7729  139.3233  157.1970 C.ar    1  UNL1        0.0115
     32 C         133.2512  139.5276  157.0450 C.ar    1  UNL1        0.0054
@<TRIPOS>BOND
     1    21    20    1
     2    21    22    1
     3    22    23   am
     4    23    24    2
     5    23    26    1
     6    26    27   ar
     7    27    28   ar
     8    28    29   ar
     9    29    30    1
    10    29    31   ar
    11    31    32   ar
    12    21     1    1
    13     1     2   ar
    14     2     3   ar
    15     3     4   ar
    16     4     5   ar
    17     5     6   ar
    18     5     7    1
    19     7     8    1
    20     8     9    1
    21     9    10    1
    22    10    11   am
    23    11    12    2
    24    11    13    1
    25    13    14   ar
    26    14    15   ar
    27    15    16   ar
    28    16    17   ar
    29    17    18    1
    30    17    19   ar
    31    32    26   ar
    32     6     1   ar
    33    19    13   ar
    34    10     4    1
    35    22    25    1
@<TRIPOS>MOLECULE
*****
 32 35 0 0 0
SMALL
GASTEIGER

@<TRIPOS>ATOM
      1 C         143.2254  140.4418  160.1706 C.ar    1  UNL1       -0.0014
      2 C         141.9648  141.1230  160.6142 C.ar    1  UNL1       -0.0012
      3 C         141.5913  141.1373  162.0668 C.ar    1  UNL1        0.0177
      4 C         142.4784  140.4704  163.0759 C.ar    1  UNL1        0.0883
      5 C         143.7390  139.7892  162.6324 C.ar    1  UNL1        0.1519
      6 C         144.1125  139.7749  161.1797 C.ar    1  UNL1        0.0355
      7 O         144.6261  139.1223  163.6415 O.3     1  UNL1       -0.4724
      8 C         144.2526  139.1366  165.0941 C.3     1  UNL1        0.2272
      9 C         142.9919  139.8178  165.5378 C.3     1  UNL1        0.1458
     10 N         142.1049  140.4847  164.5287 N.am    1  UNL1       -0.2486
     11 C         140.8443  141.1660  164.9722 C.2     1  UNL1        0.2529
     12 O         139.9572  141.8329  163.9631 O.2     1  UNL1       -0.2696
     13 C         140.4707  141.1803  166.4249 C.ar    1  UNL1        0.0547
     14 C         139.7797  139.9961  167.0334 C.ar    1  UNL1        0.0046
     15 C         139.4062  140.0105  168.4860 C.ar    1  UNL1        0.0010
     16 C         139.7236  141.2091  169.3302 C.ar    1  UNL1        0.0114
     17 C         140.4146  142.3932  168.7218 C.ar    1  UNL1        0.0578
     18 CL        140.7321  143.5918  169.5660 Cl      1  UNL1       -0.0822
     19 C         140.7882  142.3789  167.2691 C.ar    1  UNL1        0.0159
     20 C         143.9526  141.7082  158.0218 C.3     1  UNL1        0.0262
     21 C         143.5990  140.4274  158.7179 C.3     1  UNL1        0.0945
     22 N         143.6189  139.1323  157.9614 N.am    1  UNL1       -0.2987
     23 C         142.4030  138.6873  157.2042 C.2     1  UNL1        0.2460
     24 O         141.1670  139.5374  157.2035 O.2     1  UNL1       -0.2701
     25 H         144.4300  138.5744  157.9619 H       1  UNL1        0.1500
     26 C         142.4229  137.3922  156.4477 C.ar    1  UNL1        0.0534
     27 C         141.1353  136.6990  156.1135 C.ar    1  UNL1        0.0054
     28 C         141.1552  135.4039  155.3570 C.ar    1  UNL1        0.0115
     29 C         142.4627  134.8020  154.9347 C.ar    1  UNL1        0.0577
     30 CL        142.4826  133.5069  154.1782 Cl      1  UNL1       -0.0822
     31 C         143.7502  135.4952  155.2689 C.ar    1  UNL1        0.0115
     32 C         143.7303  136.7903  156.0254 C.ar    1  UNL1        0.0054
@<TRIPOS>BOND
     1    21    20    1
     2    21    22    1
     3    22    23   am
     4    23    24    2
     5    23    26    1
     6    26    27   ar
     7    27    28   ar
     8    28    29   ar
     9    29    30    1
    10    29    31   ar
    11    31    32   ar
    12    21     1    1
    13     1     2   ar
    14     2     3   ar
    15     3     4   ar
    16     4     5   ar
    17     5     6   ar
    18     5     7    1
    19     7     8    1
    20     8     9    1
    21     9    10    1
    22    10    11   am
    23    11    12    2
    24    11    13    1
    25    13    14   ar
    26    14    15   ar
    27    15    16   ar
    28    16    17   ar
    29    17    18    1
    30    17    19   ar
    31    32    26   ar
    32     6     1   ar
    33    19    13   ar
    34    10     4    1
    35    22    25    1
@<TRIPOS>MOLECULE
*****
 32 35 0 0 0
SMALL
GASTEIGER

@<TRIPOS>ATOM
      1 C         139.7574  138.5403  164.2678 C.ar    1  UNL1       -0.0014
      2 C         141.1160  138.0336  163.8839 C.ar    1  UNL1       -0.0012
      3 C         141.5406  138.0419  162.4453 C.ar    1  UNL1        0.0177
      4 C         140.6065  138.5570  161.3906 C.ar    1  UNL1        0.0883
      5 C         139.2479  139.0636  161.7746 C.ar    1  UNL1        0.1519
      6 C         138.8234  139.0553  163.2132 C.ar    1  UNL1        0.0355
      7 O         138.3139  139.5787  160.7199 O.3     1  UNL1       -0.4724
      8 C         138.7385  139.5870  159.2813 C.3     1  UNL1        0.2272
      9 C         140.0971  139.0803  158.8973 C.3     1  UNL1        0.1458
     10 N         141.0311  138.5653  159.9519 N.am    1  UNL1       -0.2486
     11 C         142.3897  138.0586  159.5680 C.2     1  UNL1        0.2529
     12 O         143.3238  137.5436  160.6227 O.2     1  UNL1       -0.2696
     13 C         142.8144  138.0669  158.1293 C.ar    1  UNL1        0.0547
     14 C         143.3027  139.3373  157.4988 C.ar    1  UNL1        0.0046
     15 C         143.7273  139.3456  156.0602 C.ar    1  UNL1        0.0010
     16 C         143.6635  138.0835  155.2521 C.ar    1  UNL1        0.0114
     17 C         143.1751  136.8131  155.8826 C.ar    1  UNL1        0.0578
     18 CL        143.1113  135.5510  155.0745 Cl      1  UNL1       -0.0822
     19 C         142.7506  136.8048  157.3212 C.ar    1  UNL1        0.0159
     20 C         138.0911  137.7978  166.1178 C.3     1  UNL1        0.0262
     21 C         139.3328  138.5319  165.7065 C.3     1  UNL1        0.0945
     22 N         140.1500  139.2578  166.7339 N.am    1  UNL1       -0.2987
     23 C         140.0884  140.7539  166.8208 C.2     1  UNL1        0.2460
     24 O         139.2097  141.5244  165.8804 O.2     1  UNL1       -0.2701
     25 H         140.7267  138.7521  167.3511 H       1  UNL1        0.1500
     26 C         140.9056  141.4798  167.8482 C.ar    1  UNL1        0.0534
     27 C         140.2773  142.5567  168.6821 C.ar    1  UNL1        0.0054
     28 C         141.0944  143.2825  169.7095 C.ar    1  UNL1        0.0115
     29 C         142.5399  142.9314  169.9029 C.ar    1  UNL1        0.0577
     30 CL        143.3571  143.6572  170.9302 Cl      1  UNL1       -0.0822
     31 C         143.1682  141.8545  169.0689 C.ar    1  UNL1        0.0115
     32 C         142.3510  141.1287  168.0416 C.ar    1  UNL1        0.0054
@<TRIPOS>BOND
     1    21    20    1
     2    21    22    1
     3    22    23   am
     4    23    24    2
     5    23    26    1
     6    26    27   ar
     7    27    28   ar
     8    28    29   ar
     9    29    30    1
    10    29    31   ar
    11    31    32   ar
    12    21     1    1
    13     1     2   ar
    14     2     3   ar
    15     3     4   ar
    16     4     5   ar
    17     5     6   ar
    18     5     7    1
    19     7     8    1
    20     8     9    1
    21     9    10    1
    22    10    11   am
    23    11    12    2
    24    11    13    1
    25    13    14   ar
    26    14    15   ar
    27    15    16   ar
    28    16    17   ar
    29    17    18    1
    30    17    19   ar
    31    32    26   ar
    32     6     1   ar
    33    19    13   ar
    34    10     4    1
    35    22    25    1
