@<TRIPOS>MOLECULE
*****
 27 29 0 0 0
SMALL
GASTEIGER

@<TRIPOS>ATOM
      1 C         139.3485  139.6173  167.6694 C.ar    1  UNL1       -0.0099
      2 C         138.2119  138.8783  167.0275 C.ar    1  UNL1       -0.0002
      3 C         138.4028  138.2224  165.6921 C.ar    1  UNL1        0.0366
      4 C         139.7302  138.3054  164.9987 C.ar    1  UNL1        0.1387
      5 C         140.8668  139.0444  165.6406 C.ar    1  UNL1        0.0366
      6 C         140.6760  139.7003  166.9760 C.ar    1  UNL1       -0.0002
      7 C         139.1576  140.2732  169.0049 C.3     1  UNL1        0.0917
      8 C         135.8907  138.8611  171.7587 C.3     1  UNL1        0.0900
      9 C         136.9796  139.3318  170.8408 C.1     1  UNL1       -0.0897
     10 C         138.0686  139.8025  169.9228 C.1     1  UNL1       -0.0872
     11 C         140.0556  141.3998  169.4224 C.3     1  UNL1        0.0591
     12 C         140.0016  141.9205  170.8280 C.2     1  UNL1        0.0517
     13 O         140.6576  141.1534  171.9377 O.co2   1  UNL1       -0.5491
     14 O         139.2915  143.2082  171.1241 O.co2   1  UNL1       -0.5491
     15 O         139.9212  137.6495  163.6632 O.3     1  UNL1       -0.4714
     16 C         139.4389  138.3310  162.4171 C.3     1  UNL1        0.2525
     17 C         139.1345  139.7997  162.4354 C.3     1  UNL1        0.2526
     18 C         137.7573  140.2846  162.0918 C.3     1  UNL1        0.2526
     19 O         137.4529  141.7532  162.1101 O.3     1  UNL1       -0.4684
     20 C         138.5259  142.7371  162.4719 C.ar    1  UNL1        0.1724
     21 C         138.2215  144.2058  162.4902 C.ar    1  UNL1        0.0409
     22 C         139.2944  145.1896  162.8520 C.ar    1  UNL1        0.0147
     23 C         140.6717  144.7047  163.1956 C.ar    1  UNL1        0.0609
     24 CL        141.7446  145.6886  163.5574 Cl      1  UNL1       -0.0821
     25 C         140.9760  143.2361  163.1773 C.ar    1  UNL1        0.0514
     26 C         139.9031  142.2522  162.8155 C.ar    1  UNL1        0.1732
     27 O         140.2075  140.7836  162.7972 O.3     1  UNL1       -0.4683
@<TRIPOS>UNITY_ATOM_ATTR
13 1
charge -1
@<TRIPOS>BOND
     1     8     9    1
     2     9    10    3
     3     7    10    1
     4     7    11    1
     5    11    12    1
     6    12    13   ar
     7    12    14   ar
     8     7     1    1
     9     1     2   ar
    10     2     3   ar
    11     3     4   ar
    12     4    15    1
    13    15    16    1
    14    17    16    1
    15    17    18    1
    16    18    19    1
    17    19    20    1
    18    20    21   ar
    19    21    22   ar
    20    22    23   ar
    21    23    24    1
    22    23    25   ar
    23    25    26   ar
    24    26    27    1
    25     4     5   ar
    26     5     6   ar
    27     6     1   ar
    28    27    17    1
    29    26    20   ar
@<TRIPOS>MOLECULE
*****
 27 29 0 0 0
SMALL
GASTEIGER

@<TRIPOS>ATOM
      1 C         141.0680  138.5916  164.0917 C.ar    1  UNL1       -0.0099
      2 C         141.6444  139.0379  165.4026 C.ar    1  UNL1       -0.0002
      3 C         143.0482  139.5626  165.4650 C.ar    1  UNL1        0.0366
      4 C         143.8757  139.6410  164.2164 C.ar    1  UNL1        0.1387
      5 C         143.2993  139.1947  162.9054 C.ar    1  UNL1        0.0366
      6 C         141.8955  138.6700  162.8431 C.ar    1  UNL1       -0.0002
      7 C         139.6641  138.0669  164.0294 C.3     1  UNL1        0.0917
      8 C         137.0851  138.0974  167.7169 C.3     1  UNL1        0.0900
      9 C         137.9448  138.0872  166.4878 C.1     1  UNL1       -0.0897
     10 C         138.8045  138.0770  165.2586 C.1     1  UNL1       -0.0872
     11 C         139.1200  137.5320  162.7380 C.3     1  UNL1        0.0591
     12 C         138.6543  138.4781  161.6713 C.2     1  UNL1        0.0517
     13 O         137.5915  139.4910  161.9790 O.co2   1  UNL1       -0.5491
     14 O         139.2514  138.4115  160.2968 O.co2   1  UNL1       -0.5491
     15 O         145.2796  140.1657  164.2786 O.3     1  UNL1       -0.4714
     16 C         145.5799  141.5611  163.8175 C.3     1  UNL1        0.2525
     17 C         144.4631  142.4653  163.3868 C.3     1  UNL1        0.2526
     18 C         144.5295  143.1588  162.0584 C.3     1  UNL1        0.2526
     19 O         143.4129  144.0630  161.6278 O.3     1  UNL1       -0.4684
     20 C         142.2298  144.2737  162.5256 C.ar    1  UNL1        0.1724
     21 C         141.1131  145.1779  162.0950 C.ar    1  UNL1        0.0409
     22 C         139.9300  145.3886  162.9927 C.ar    1  UNL1        0.0147
     23 C         139.8637  144.6951  164.3212 C.ar    1  UNL1        0.0609
     24 CL        138.6806  144.9058  165.2189 Cl      1  UNL1       -0.0821
     25 C         140.9804  143.7909  164.7518 C.ar    1  UNL1        0.0514
     26 C         142.1634  143.5802  163.8540 C.ar    1  UNL1        0.1732
     27 O         143.2801  142.6760  164.2846 O.3     1  UNL1       -0.4683
@<TRIPOS>UNITY_ATOM_ATTR
13 1
charge -1
@<TRIPOS>BOND
     1     8     9    1
     2     9    10    3
     3     7    10    1
     4     7    11    1
     5    11    12    1
     6    12    13   ar
     7    12    14   ar
     8     7     1    1
     9     1     2   ar
    10     2     3   ar
    11     3     4   ar
    12     4    15    1
    13    15    16    1
    14    17    16    1
    15    17    18    1
    16    18    19    1
    17    19    20    1
    18    20    21   ar
    19    21    22   ar
    20    22    23   ar
    21    23    24    1
    22    23    25   ar
    23    25    26   ar
    24    26    27    1
    25     4     5   ar
    26     5     6   ar
    27     6     1   ar
    28    27    17    1
    29    26    20   ar
@<TRIPOS>MOLECULE
*****
 27 29 0 0 0
SMALL
GASTEIGER

@<TRIPOS>ATOM
      1 C         139.3945  141.2731  165.4687 C.ar    1  UNL1       -0.0099
      2 C         140.3122  142.4597  165.4642 C.ar    1  UNL1       -0.0002
      3 C         140.0011  143.6450  164.5993 C.ar    1  UNL1        0.0366
      4 C         138.7725  143.6438  163.7388 C.ar    1  UNL1        0.1387
      5 C         137.8549  142.4572  163.7433 C.ar    1  UNL1        0.0366
      6 C         138.1659  141.2718  164.6083 C.ar    1  UNL1       -0.0002
      7 C         139.7056  140.0877  166.3337 C.3     1  UNL1        0.0917
      8 C         143.8272  138.2823  166.2792 C.3     1  UNL1        0.0900
      9 C         142.4534  138.8841  166.2974 C.1     1  UNL1       -0.0897
     10 C         141.0795  139.4859  166.3156 C.1     1  UNL1       -0.0872
     11 C         138.6428  139.5041  167.2168 C.3     1  UNL1        0.0591
     12 C         137.9167  138.2612  166.7954 C.2     1  UNL1        0.0517
     13 O         138.3423  137.5267  165.5587 O.co2   1  UNL1       -0.5491
     14 O         136.7648  137.7526  167.6107 O.co2   1  UNL1       -0.5491
     15 O         138.4614  144.8292  162.8738 O.3     1  UNL1       -0.4714
     16 C         139.5666  145.7338  162.4154 C.3     1  UNL1        0.2525
     17 C         140.3088  145.4285  161.1480 C.3     1  UNL1        0.2526
     18 C         141.5538  144.5930  161.1906 C.3     1  UNL1        0.2526
     19 O         142.2958  144.2878  159.9232 O.3     1  UNL1       -0.4684
     20 C         141.7928  144.8181  158.6134 C.ar    1  UNL1        0.1724
     21 C         142.5349  144.5129  157.3460 C.ar    1  UNL1        0.0409
     22 C         142.0319  145.0431  156.0361 C.ar    1  UNL1        0.0147
     23 C         140.7869  145.8787  155.9936 C.ar    1  UNL1        0.0609
     24 CL        140.2839  146.4089  154.6837 Cl      1  UNL1       -0.0821
     25 C         140.0448  146.1839  157.2609 C.ar    1  UNL1        0.0514
     26 C         140.5478  145.6536  158.5708 C.ar    1  UNL1        0.1732
     27 O         139.8058  145.9588  159.8381 O.3     1  UNL1       -0.4683
@<TRIPOS>UNITY_ATOM_ATTR
13 1
charge -1
@<TRIPOS>BOND
     1     8     9    1
     2     9    10    3
     3     7    10    1
     4     7    11    1
     5    11    12    1
     6    12    13   ar
     7    12    14   ar
     8     7     1    1
     9     1     2   ar
    10     2     3   ar
    11     3     4   ar
    12     4    15    1
    13    15    16    1
    14    17    16    1
    15    17    18    1
    16    18    19    1
    17    19    20    1
    18    20    21   ar
    19    21    22   ar
    20    22    23   ar
    21    23    24    1
    22    23    25   ar
    23    25    26   ar
    24    26    27    1
    25     4     5   ar
    26     5     6   ar
    27     6     1   ar
    28    27    17    1
    29    26    20   ar
@<TRIPOS>MOLECULE
*****
 27 29 0 0 0
SMALL
GASTEIGER

@<TRIPOS>ATOM
      1 C         142.0556  144.4681  161.6245 C.ar    1  UNL1       -0.0099
      2 C         142.5636  143.3407  160.7754 C.ar    1  UNL1       -0.0002
      3 C         143.7428  142.5323  161.2293 C.ar    1  UNL1        0.0366
      4 C         144.4140  142.8513  162.5322 C.ar    1  UNL1        0.1387
      5 C         143.9060  143.9787  163.3813 C.ar    1  UNL1        0.0366
      6 C         142.7268  144.7871  162.9275 C.ar    1  UNL1       -0.0002
      7 C         140.8764  145.2765  161.1706 C.3     1  UNL1        0.0917
      8 C         140.0247  145.7418  156.7765 C.3     1  UNL1        0.0900
      9 C         140.3086  145.5867  158.2412 C.1     1  UNL1       -0.0897
     10 C         140.5925  145.4316  159.7059 C.1     1  UNL1       -0.0872
     11 C         139.9812  145.9298  162.1814 C.3     1  UNL1        0.0591
     12 C         139.0788  145.0911  163.0371 C.2     1  UNL1        0.0517
     13 O         137.8378  144.4863  162.4504 O.co2   1  UNL1       -0.5491
     14 O         139.4173  144.8573  164.4796 O.co2   1  UNL1       -0.5491
     15 O         145.5932  142.0429  162.9861 O.3     1  UNL1       -0.4714
     16 C         145.4027  140.9241  163.9670 C.3     1  UNL1        0.2525
     17 C         144.1771  140.0625  163.8932 C.3     1  UNL1        0.2526
     18 C         144.0943  138.9615  162.8778 C.3     1  UNL1        0.2526
     19 O         142.8687  138.0999  162.8041 O.3     1  UNL1       -0.4684
     20 C         141.7259  138.3392  163.7456 C.ar    1  UNL1        0.1724
     21 C         140.5002  137.4776  163.6718 C.ar    1  UNL1        0.0409
     22 C         139.3574  137.7169  164.6134 C.ar    1  UNL1        0.0147
     23 C         139.4401  138.8180  165.6288 C.ar    1  UNL1        0.0609
     24 CL        138.2973  139.0574  166.5703 Cl      1  UNL1       -0.0821
     25 C         140.6657  139.6796  165.7025 C.ar    1  UNL1        0.0514
     26 C         141.8086  139.4402  164.7610 C.ar    1  UNL1        0.1732
     27 O         143.0342  140.3018  164.8347 O.3     1  UNL1       -0.4683
@<TRIPOS>UNITY_ATOM_ATTR
13 1
charge -1
@<TRIPOS>BOND
     1     8     9    1
     2     9    10    3
     3     7    10    1
     4     7    11    1
     5    11    12    1
     6    12    13   ar
     7    12    14   ar
     8     7     1    1
     9     1     2   ar
    10     2     3   ar
    11     3     4   ar
    12     4    15    1
    13    15    16    1
    14    17    16    1
    15    17    18    1
    16    18    19    1
    17    19    20    1
    18    20    21   ar
    19    21    22   ar
    20    22    23   ar
    21    23    24    1
    22    23    25   ar
    23    25    26   ar
    24    26    27    1
    25     4     5   ar
    26     5     6   ar
    27     6     1   ar
    28    27    17    1
    29    26    20   ar
@<TRIPOS>MOLECULE
*****
 27 29 0 0 0
SMALL
GASTEIGER

@<TRIPOS>ATOM
      1 C         138.7052  141.0206  165.1717 C.ar    1  UNL1       -0.0099
      2 C         137.6806  141.0337  164.0761 C.ar    1  UNL1       -0.0002
      3 C         137.5268  142.2470  163.2076 C.ar    1  UNL1        0.0366
      4 C         138.3975  143.4471  163.4346 C.ar    1  UNL1        0.1387
      5 C         139.4221  143.4339  164.5302 C.ar    1  UNL1        0.0366
      6 C         139.5759  142.2207  165.3987 C.ar    1  UNL1       -0.0002
      7 C         138.8590  139.8073  166.0402 C.3     1  UNL1        0.0917
      8 C         140.3143  140.2423  170.2761 C.3     1  UNL1        0.0900
      9 C         139.8292  140.0973  168.8641 C.1     1  UNL1       -0.0897
     10 C         139.3441  139.9523  167.4522 C.1     1  UNL1       -0.0872
     11 C         138.5277  138.4490  165.4967 C.3     1  UNL1        0.0591
     12 C         139.4210  137.8122  164.4739 C.2     1  UNL1        0.0517
     13 O         140.8473  137.4976  164.8157 O.co2   1  UNL1       -0.5491
     14 O         138.8882  137.4898  163.1093 O.co2   1  UNL1       -0.5491
     15 O         138.2437  144.6604  162.5661 O.3     1  UNL1       -0.4714
     16 C         139.4311  145.5293  162.2744 C.3     1  UNL1        0.2525
     17 C         140.2180  145.3255  161.0137 C.3     1  UNL1        0.2526
     18 C         141.4950  144.5393  161.0455 C.3     1  UNL1        0.2526
     19 O         142.2818  144.3355  159.7848 O.3     1  UNL1       -0.4684
     20 C         141.7917  144.9180  158.4924 C.ar    1  UNL1        0.1724
     21 C         142.5786  144.7142  157.2317 C.ar    1  UNL1        0.0409
     22 C         142.0885  145.2967  155.9392 C.ar    1  UNL1        0.0147
     23 C         140.8114  146.0830  155.9075 C.ar    1  UNL1        0.0609
     24 CL        140.3213  146.6655  154.6150 Cl      1  UNL1       -0.0821
     25 C         140.0246  146.2868  157.1681 C.ar    1  UNL1        0.0514
     26 C         140.5147  145.7043  158.4606 C.ar    1  UNL1        0.1732
     27 O         139.7279  145.9080  159.7212 O.3     1  UNL1       -0.4683
@<TRIPOS>UNITY_ATOM_ATTR
13 1
charge -1
@<TRIPOS>BOND
     1     8     9    1
     2     9    10    3
     3     7    10    1
     4     7    11    1
     5    11    12    1
     6    12    13   ar
     7    12    14   ar
     8     7     1    1
     9     1     2   ar
    10     2     3   ar
    11     3     4   ar
    12     4    15    1
    13    15    16    1
    14    17    16    1
    15    17    18    1
    16    18    19    1
    17    19    20    1
    18    20    21   ar
    19    21    22   ar
    20    22    23   ar
    21    23    24    1
    22    23    25   ar
    23    25    26   ar
    24    26    27    1
    25     4     5   ar
    26     5     6   ar
    27     6     1   ar
    28    27    17    1
    29    26    20   ar
@<TRIPOS>MOLECULE
*****
 27 29 0 0 0
SMALL
GASTEIGER

@<TRIPOS>ATOM
      1 C         139.5341  141.4009  166.0740 C.ar    1  UNL1       -0.0099
      2 C         138.6838  141.0751  164.8820 C.ar    1  UNL1       -0.0002
      3 C         138.2156  142.1720  163.9723 C.ar    1  UNL1        0.0366
      4 C         138.5977  143.5947  164.2546 C.ar    1  UNL1        0.1387
      5 C         139.4480  143.9206  165.4466 C.ar    1  UNL1        0.0366
      6 C         139.9162  142.8237  166.3563 C.ar    1  UNL1       -0.0002
      7 C         140.0023  140.3040  166.9837 C.3     1  UNL1        0.0917
      8 C         143.9436  138.2726  166.2158 C.3     1  UNL1        0.0900
      9 C         142.6298  138.9497  166.4718 C.1     1  UNL1       -0.0897
     10 C         141.3160  139.6268  166.7277 C.1     1  UNL1       -0.0872
     11 C         139.1567  139.8842  168.1493 C.3     1  UNL1        0.0591
     12 C         139.4271  140.4469  169.5132 C.2     1  UNL1        0.0517
     13 O         140.2810  141.6709  169.6638 O.co2   1  UNL1       -0.5491
     14 O         138.8435  139.7856  170.7266 O.co2   1  UNL1       -0.5491
     15 O         138.1295  144.6917  163.3449 O.3     1  UNL1       -0.4714
     16 C         139.1246  145.4763  162.5423 C.3     1  UNL1        0.2525
     17 C         140.3306  144.7936  161.9682 C.3     1  UNL1        0.2526
     18 C         140.4893  144.6765  160.4812 C.3     1  UNL1        0.2526
     19 O         141.6953  143.9938  159.9072 O.3     1  UNL1       -0.4684
     20 C         142.7424  143.4281  160.8202 C.ar    1  UNL1        0.1724
     21 C         143.9484  142.7453  160.2461 C.ar    1  UNL1        0.0409
     22 C         144.9956  142.1796  161.1590 C.ar    1  UNL1        0.0147
     23 C         144.8368  142.2967  162.6460 C.ar    1  UNL1        0.0609
     24 CL        145.8839  141.7310  163.5590 Cl      1  UNL1       -0.0821
     25 C         143.6308  142.9794  163.2200 C.ar    1  UNL1        0.0514
     26 C         142.5837  143.5451  162.3071 C.ar    1  UNL1        0.1732
     27 O         141.3777  144.2279  162.8811 O.3     1  UNL1       -0.4683
@<TRIPOS>UNITY_ATOM_ATTR
13 1
charge -1
@<TRIPOS>BOND
     1     8     9    1
     2     9    10    3
     3     7    10    1
     4     7    11    1
     5    11    12    1
     6    12    13   ar
     7    12    14   ar
     8     7     1    1
     9     1     2   ar
    10     2     3   ar
    11     3     4   ar
    12     4    15    1
    13    15    16    1
    14    17    16    1
    15    17    18    1
    16    18    19    1
    17    19    20    1
    18    20    21   ar
    19    21    22   ar
    20    22    23   ar
    21    23    24    1
    22    23    25   ar
    23    25    26   ar
    24    26    27    1
    25     4     5   ar
    26     5     6   ar
    27     6     1   ar
    28    27    17    1
    29    26    20   ar
@<TRIPOS>MOLECULE
*****
 27 29 0 0 0
SMALL
GASTEIGER

@<TRIPOS>ATOM
      1 C         140.2159  139.8226  167.7485 C.ar    1  UNL1       -0.0099
      2 C         141.1370  139.4928  166.6115 C.ar    1  UNL1       -0.0002
      3 C         140.5812  138.9442  165.3309 C.ar    1  UNL1        0.0366
      4 C         139.1042  138.7254  165.1873 C.ar    1  UNL1        0.1387
      5 C         138.1831  139.0552  166.3243 C.ar    1  UNL1        0.0366
      6 C         138.7390  139.6038  167.6049 C.ar    1  UNL1       -0.0002
      7 C         140.7718  140.3712  169.0292 C.3     1  UNL1        0.0917
      8 C         140.0881  144.6848  170.1134 C.3     1  UNL1        0.0900
      9 C         140.3160  143.2470  169.7520 C.1     1  UNL1       -0.0897
     10 C         140.5439  141.8091  169.3906 C.1     1  UNL1       -0.0872
     11 C         141.5556  139.4820  169.9484 C.3     1  UNL1        0.0591
     12 C         142.9848  139.8067  170.2676 C.2     1  UNL1        0.0517
     13 O         143.5866  141.0943  169.7881 O.co2   1  UNL1       -0.5491
     14 O         143.8123  138.8437  171.0664 O.co2   1  UNL1       -0.5491
     15 O         138.5483  138.1767  163.9067 O.3     1  UNL1       -0.4714
     16 C         138.4001  139.0692  162.7102 C.3     1  UNL1        0.2525
     17 C         138.6588  140.5414  162.8360 C.3     1  UNL1        0.2526
     18 C         137.5091  141.4978  162.9510 C.3     1  UNL1        0.2526
     19 O         137.7679  142.9699  163.0767 O.3     1  UNL1       -0.4684
     20 C         139.1764  143.4856  163.0875 C.ar    1  UNL1        0.1724
     21 C         139.4351  144.9578  163.2132 C.ar    1  UNL1        0.0409
     22 C         140.8437  145.4735  163.2240 C.ar    1  UNL1        0.0147
     23 C         141.9934  144.5170  163.1089 C.ar    1  UNL1        0.0609
     24 CL        143.4020  145.0327  163.1197 Cl      1  UNL1       -0.0821
     25 C         141.7347  143.0449  162.9832 C.ar    1  UNL1        0.0514
     26 C         140.3261  142.5292  162.9724 C.ar    1  UNL1        0.1732
     27 O         140.0674  141.0571  162.8467 O.3     1  UNL1       -0.4683
@<TRIPOS>UNITY_ATOM_ATTR
13 1
charge -1
@<TRIPOS>BOND
     1     8     9    1
     2     9    10    3
     3     7    10    1
     4     7    11    1
     5    11    12    1
     6    12    13   ar
     7    12    14   ar
     8     7     1    1
     9     1     2   ar
    10     2     3   ar
    11     3     4   ar
    12     4    15    1
    13    15    16    1
    14    17    16    1
    15    17    18    1
    16    18    19    1
    17    19    20    1
    18    20    21   ar
    19    21    22   ar
    20    22    23   ar
    21    23    24    1
    22    23    25   ar
    23    25    26   ar
    24    26    27    1
    25     4     5   ar
    26     5     6   ar
    27     6     1   ar
    28    27    17    1
    29    26    20   ar
@<TRIPOS>MOLECULE
*****
 27 29 0 0 0
SMALL
GASTEIGER

@<TRIPOS>ATOM
      1 C         141.4505  139.1969  165.6058 C.ar    1  UNL1       -0.0099
      2 C         141.8646  138.7520  164.2345 C.ar    1  UNL1       -0.0002
      3 C         140.8531  138.1525  163.3031 C.ar    1  UNL1        0.0366
      4 C         139.4275  137.9980  163.7431 C.ar    1  UNL1        0.1387
      5 C         139.0134  138.4430  165.1144 C.ar    1  UNL1        0.0366
      6 C         140.0249  139.0424  166.0458 C.ar    1  UNL1       -0.0002
      7 C         142.4621  139.7964  166.5372 C.3     1  UNL1        0.0917
      8 C         144.4684  143.6832  165.4799 C.3     1  UNL1        0.0900
      9 C         143.7996  142.3876  165.8323 C.1     1  UNL1       -0.0897
     10 C         143.1309  141.0920  166.1848 C.1     1  UNL1       -0.0872
     11 C         142.8049  139.1003  167.8208 C.3     1  UNL1        0.0591
     12 C         142.3189  139.6542  169.1273 C.2     1  UNL1        0.0517
     13 O         140.8470  139.7559  169.3978 O.co2   1  UNL1       -0.5491
     14 O         143.3049  140.1066  170.1634 O.co2   1  UNL1       -0.5491
     15 O         138.4159  137.3985  162.8118 O.3     1  UNL1       -0.4714
     16 C         137.6689  138.2752  161.8508 C.3     1  UNL1        0.2525
     17 C         137.9224  139.7535  161.8317 C.3     1  UNL1        0.2526
     18 C         138.2102  140.4484  160.5339 C.3     1  UNL1        0.2526
     19 O         138.4637  141.9267  160.5149 O.3     1  UNL1       -0.4684
     20 C         138.4295  142.7101  161.7936 C.ar    1  UNL1        0.1724
     21 C         138.6830  144.1884  161.7745 C.ar    1  UNL1        0.0409
     22 C         138.6488  144.9718  163.0532 C.ar    1  UNL1        0.0147
     23 C         138.3611  144.2768  164.3511 C.ar    1  UNL1        0.0609
     24 CL        138.3268  145.0602  165.6298 Cl      1  UNL1       -0.0821
     25 C         138.1075  142.7986  164.3701 C.ar    1  UNL1        0.0514
     26 C         138.1418  142.0152  163.0914 C.ar    1  UNL1        0.1732
     27 O         137.8882  140.5369  163.1105 O.3     1  UNL1       -0.4683
@<TRIPOS>UNITY_ATOM_ATTR
13 1
charge -1
@<TRIPOS>BOND
     1     8     9    1
     2     9    10    3
     3     7    10    1
     4     7    11    1
     5    11    12    1
     6    12    13   ar
     7    12    14   ar
     8     7     1    1
     9     1     2   ar
    10     2     3   ar
    11     3     4   ar
    12     4    15    1
    13    15    16    1
    14    17    16    1
    15    17    18    1
    16    18    19    1
    17    19    20    1
    18    20    21   ar
    19    21    22   ar
    20    22    23   ar
    21    23    24    1
    22    23    25   ar
    23    25    26   ar
    24    26    27    1
    25     4     5   ar
    26     5     6   ar
    27     6     1   ar
    28    27    17    1
    29    26    20   ar
@<TRIPOS>MOLECULE
*****
 27 29 0 0 0
SMALL
GASTEIGER

@<TRIPOS>ATOM
      1 C         140.7656  139.3932  166.6597 C.ar    1  UNL1       -0.0099
      2 C         142.1338  139.0080  166.1805 C.ar    1  UNL1       -0.0002
      3 C         142.2941  138.2661  164.8867 C.ar    1  UNL1        0.0366
      4 C         141.0861  137.9095  164.0721 C.ar    1  UNL1        0.1387
      5 C         139.7179  138.2948  164.5513 C.ar    1  UNL1        0.0366
      6 C         139.5577  139.0366  165.8451 C.ar    1  UNL1       -0.0002
      7 C         140.6054  140.1351  167.9536 C.3     1  UNL1        0.0917
      8 C         144.0717  142.4314  169.6746 C.3     1  UNL1        0.0900
      9 C         142.9163  141.6660  169.1009 C.1     1  UNL1       -0.0897
     10 C         141.7609  140.9005  168.5272 C.1     1  UNL1       -0.0872
     11 C         139.2898  140.1116  168.6737 C.3     1  UNL1        0.0591
     12 C         139.2256  140.4652  170.1300 C.2     1  UNL1        0.0517
     13 O         139.0576  141.8960  170.5476 O.co2   1  UNL1       -0.5491
     14 O         139.3292  139.3879  171.1686 O.co2   1  UNL1       -0.5491
     15 O         141.2463  137.1676  162.7783 O.3     1  UNL1       -0.4714
     16 C         141.4243  137.9256  161.4962 C.3     1  UNL1        0.2525
     17 C         141.2115  139.4102  161.4668 C.3     1  UNL1        0.2526
     18 C         139.9761  139.9783  160.8337 C.3     1  UNL1        0.2526
     19 O         139.7633  141.4629  160.8044 O.3     1  UNL1       -0.4684
     20 C         140.7860  142.3792  161.4081 C.ar    1  UNL1        0.1724
     21 C         140.5731  143.8638  161.3788 C.ar    1  UNL1        0.0409
     22 C         141.5958  144.7801  161.9825 C.ar    1  UNL1        0.0147
     23 C         142.8313  144.2118  162.6157 C.ar    1  UNL1        0.0609
     24 CL        143.8539  145.1282  163.2194 Cl      1  UNL1       -0.0821
     25 C         143.0440  142.7273  162.6450 C.ar    1  UNL1        0.0514
     26 C         142.0214  141.8110  162.0412 C.ar    1  UNL1        0.1732
     27 O         142.2341  140.3265  162.0706 O.3     1  UNL1       -0.4683
@<TRIPOS>UNITY_ATOM_ATTR
13 1
charge -1
@<TRIPOS>BOND
     1     8     9    1
     2     9    10    3
     3     7    10    1
     4     7    11    1
     5    11    12    1
     6    12    13   ar
     7    12    14   ar
     8     7     1    1
     9     1     2   ar
    10     2     3   ar
    11     3     4   ar
    12     4    15    1
    13    15    16    1
    14    17    16    1
    15    17    18    1
    16    18    19    1
    17    19    20    1
    18    20    21   ar
    19    21    22   ar
    20    22    23   ar
    21    23    24    1
    22    23    25   ar
    23    25    26   ar
    24    26    27    1
    25     4     5   ar
    26     5     6   ar
    27     6     1   ar
    28    27    17    1
    29    26    20   ar
