@<TRIPOS>MOLECULE
*****
 29 32 0 0 0
SMALL
GASTEIGER

@<TRIPOS>ATOM
      1 C         140.1850  143.8342  163.1451 C.ar    1  UNL1        0.0579
      2 C         139.5161  143.2654  164.3613 C.ar    1  UNL1        0.0833
      3 N         140.5860  142.8529  165.3284 N.ar    1  UNL1       -0.3028
      4 C         141.9160  143.1667  164.7099 C.ar    1  UNL1        0.0917
      5 C         143.3207  142.9786  165.2011 C.ar    1  UNL1        0.1561
      6 F         143.5686  142.3721  166.5504 F       1  UNL1       -0.2026
      7 C         144.4776  143.3969  164.3429 C.ar    1  UNL1        0.0311
      8 C         144.2298  144.0034  162.9936 C.ar    1  UNL1        0.0024
      9 C         142.8251  144.1916  162.5024 C.ar    1  UNL1        0.0017
     10 C         141.6682  143.7732  163.3606 C.ar    1  UNL1        0.0229
     11 C         140.3647  142.2350  166.6772 C.ar    1  UNL1        0.0641
     12 C         139.9767  140.7900  166.7857 C.ar    1  UNL1        0.0176
     13 C         139.7554  140.1721  168.1345 C.ar    1  UNL1        0.0026
     14 C         139.9220  140.9991  169.3748 C.ar    1  UNL1        0.0141
     15 C         140.3100  142.4440  169.2663 C.ar    1  UNL1        0.0026
     16 C         140.5313  143.0619  167.9175 C.ar    1  UNL1        0.0176
     17 C         139.7008  140.3812  170.7236 C.2     1  UNL1        0.0729
     18 O         140.5989  140.7409  171.8698 O.co2   1  UNL1       -0.5446
     19 O         138.5813  139.4036  170.9260 O.co2   1  UNL1       -0.5446
     20 C         139.4922  144.3699  161.9273 C.2     1  UNL1        0.1976
     21 O         138.7737  145.6850  161.9907 O.2     1  UNL1       -0.2865
     22 C         141.1890  145.3049  159.6367 C.3     1  UNL1        0.0312
     23 C         140.3664  144.0579  159.5006 C.ar    1  UNL1       -0.0179
     24 C         140.3923  143.2785  158.2193 C.ar    1  UNL1       -0.0041
     25 C         139.5698  142.0316  158.0833 C.ar    1  UNL1        0.0005
     26 C         138.7214  141.5641  159.2286 C.ar    1  UNL1        0.0115
     27 C         138.6955  142.3434  160.5099 C.ar    1  UNL1        0.0604
     28 CL        137.8472  141.8759  161.6552 Cl      1  UNL1       -0.0822
     29 C         139.5181  143.5904  160.6459 C.ar    1  UNL1        0.0456
@<TRIPOS>UNITY_ATOM_ATTR
18 1
charge -1
@<TRIPOS>BOND
     1    22    23    1
     2    23    24   ar
     3    24    25   ar
     4    25    26   ar
     5    26    27   ar
     6    27    28    1
     7    27    29   ar
     8    29    20    1
     9    20    21    2
    10    20     1    1
    11     1     2   ar
    12     2     3   ar
    13     3    11    1
    14    11    12   ar
    15    12    13   ar
    16    13    14   ar
    17    14    17    1
    18    17    18   ar
    19    17    19   ar
    20    14    15   ar
    21    15    16   ar
    22     3     4   ar
    23     4     5   ar
    24     5     6    1
    25     5     7   ar
    26     7     8   ar
    27     8     9   ar
    28     9    10   ar
    29    29    23   ar
    30    10     1   ar
    31    16    11   ar
    32    10     4   ar
@<TRIPOS>MOLECULE
*****
 29 32 0 0 0
SMALL
GASTEIGER

@<TRIPOS>ATOM
      1 C         141.5975  142.2990  166.0552 C.ar    1  UNL1        0.0579
      2 C         142.0130  143.1801  164.9146 C.ar    1  UNL1        0.0833
      3 N         141.0592  142.9501  163.7800 N.ar    1  UNL1       -0.3028
      4 C         140.0543  141.9268  164.2194 C.ar    1  UNL1        0.0917
      5 C         138.8792  141.3094  163.5208 C.ar    1  UNL1        0.1561
      6 F         138.5465  141.7118  162.1146 F       1  UNL1       -0.2026
      7 C         138.0370  140.2897  164.2283 C.ar    1  UNL1        0.0311
      8 C         138.3697  139.8873  165.6345 C.ar    1  UNL1        0.0024
      9 C         139.5447  140.5047  166.3332 C.ar    1  UNL1        0.0017
     10 C         140.3870  141.5244  165.6256 C.ar    1  UNL1        0.0229
     11 C         141.1026  143.6248  162.4410 C.ar    1  UNL1        0.0641
     12 C         141.9547  143.0594  161.3435 C.ar    1  UNL1        0.0176
     13 C         141.9981  143.7342  160.0046 C.ar    1  UNL1        0.0026
     14 C         141.1895  144.9743  159.7630 C.ar    1  UNL1        0.0141
     15 C         140.3375  145.5396  160.8605 C.ar    1  UNL1        0.0026
     16 C         140.2941  144.8648  162.1995 C.ar    1  UNL1        0.0176
     17 C         141.2330  145.6490  158.4241 C.2     1  UNL1        0.0729
     18 O         142.5196  146.2319  157.9194 O.co2   1  UNL1       -0.5446
     19 O         139.9897  145.7408  157.5899 O.co2   1  UNL1       -0.5446
     20 C         142.2739  142.2084  167.3910 C.2     1  UNL1        0.1976
     21 O         143.6447  142.7876  167.5785 O.2     1  UNL1       -0.2865
     22 C         142.8163  139.3201  167.9936 C.3     1  UNL1        0.0312
     23 C         141.8505  140.0944  168.8408 C.ar    1  UNL1       -0.0179
     24 C         141.1560  139.4245  169.9892 C.ar    1  UNL1       -0.0041
     25 C         140.1902  140.1988  170.8363 C.ar    1  UNL1        0.0005
     26 C         139.9190  141.6430  170.5351 C.ar    1  UNL1        0.0115
     27 C         140.6135  142.3129  169.3867 C.ar    1  UNL1        0.0604
     28 CL        140.3423  143.7571  169.0854 Cl      1  UNL1       -0.0822
     29 C         141.5793  141.5385  168.5395 C.ar    1  UNL1        0.0456
@<TRIPOS>UNITY_ATOM_ATTR
18 1
charge -1
@<TRIPOS>BOND
     1    22    23    1
     2    23    24   ar
     3    24    25   ar
     4    25    26   ar
     5    26    27   ar
     6    27    28    1
     7    27    29   ar
     8    29    20    1
     9    20    21    2
    10    20     1    1
    11     1     2   ar
    12     2     3   ar
    13     3    11    1
    14    11    12   ar
    15    12    13   ar
    16    13    14   ar
    17    14    17    1
    18    17    18   ar
    19    17    19   ar
    20    14    15   ar
    21    15    16   ar
    22     3     4   ar
    23     4     5   ar
    24     5     6    1
    25     5     7   ar
    26     7     8   ar
    27     8     9   ar
    28     9    10   ar
    29    29    23   ar
    30    10     1   ar
    31    16    11   ar
    32    10     4   ar
@<TRIPOS>MOLECULE
*****
 29 32 0 0 0
SMALL
GASTEIGER

@<TRIPOS>ATOM
      1 C         141.6409  142.3116  166.1009 C.ar    1  UNL1        0.0579
      2 C         142.0450  143.2095  164.9693 C.ar    1  UNL1        0.0833
      3 N         141.0858  142.9888  163.8374 N.ar    1  UNL1       -0.3028
      4 C         140.0890  141.9546  164.2693 C.ar    1  UNL1        0.0917
      5 C         138.9132  141.3399  163.5696 C.ar    1  UNL1        0.1561
      6 F         138.5702  141.7584  162.1706 F       1  UNL1       -0.2026
      7 C         138.0805  140.3066  164.2688 C.ar    1  UNL1        0.0311
      8 C         138.4236  139.8881  165.6678 C.ar    1  UNL1        0.0024
      9 C         139.5993  140.5028  166.3676 C.ar    1  UNL1        0.0017
     10 C         140.4320  141.5360  165.6683 C.ar    1  UNL1        0.0229
     11 C         141.1179  143.6809  162.5069 C.ar    1  UNL1        0.0641
     12 C         140.2554  144.8844  162.2666 C.ar    1  UNL1        0.0176
     13 C         140.2874  145.5765  160.9362 C.ar    1  UNL1        0.0026
     14 C         141.1819  145.0651  159.8461 C.ar    1  UNL1        0.0141
     15 C         142.0444  143.8616  160.0864 C.ar    1  UNL1        0.0026
     16 C         142.0123  143.1696  161.4169 C.ar    1  UNL1        0.0176
     17 C         141.2140  145.7572  158.5156 C.2     1  UNL1        0.0729
     18 O         139.9324  146.0691  157.8014 O.co2   1  UNL1       -0.5446
     19 O         142.5277  146.1373  157.8995 O.co2   1  UNL1       -0.5446
     20 C         142.3255  142.2075  167.4315 C.2     1  UNL1        0.1976
     21 O         143.6903  142.8000  167.6212 O.2     1  UNL1       -0.2865
     22 C         140.3984  143.7102  169.1717 C.3     1  UNL1        0.0312
     23 C         140.6816  142.2623  169.4427 C.ar    1  UNL1       -0.0179
     24 C         140.0012  141.5658  170.5837 C.ar    1  UNL1       -0.0041
     25 C         140.2844  140.1179  170.8546 C.ar    1  UNL1        0.0005
     26 C         141.2479  139.3665  169.9845 C.ar    1  UNL1        0.0115
     27 C         141.9283  140.0630  168.8435 C.ar    1  UNL1        0.0604
     28 CL        142.8918  139.3117  167.9734 Cl      1  UNL1       -0.0822
     29 C         141.6451  141.5109  168.5726 C.ar    1  UNL1        0.0456
@<TRIPOS>UNITY_ATOM_ATTR
18 1
charge -1
@<TRIPOS>BOND
     1    22    23    1
     2    23    24   ar
     3    24    25   ar
     4    25    26   ar
     5    26    27   ar
     6    27    28    1
     7    27    29   ar
     8    29    20    1
     9    20    21    2
    10    20     1    1
    11     1     2   ar
    12     2     3   ar
    13     3    11    1
    14    11    12   ar
    15    12    13   ar
    16    13    14   ar
    17    14    17    1
    18    17    18   ar
    19    17    19   ar
    20    14    15   ar
    21    15    16   ar
    22     3     4   ar
    23     4     5   ar
    24     5     6    1
    25     5     7   ar
    26     7     8   ar
    27     8     9   ar
    28     9    10   ar
    29    29    23   ar
    30    10     1   ar
    31    16    11   ar
    32    10     4   ar
@<TRIPOS>MOLECULE
*****
 29 32 0 0 0
SMALL
GASTEIGER

@<TRIPOS>ATOM
      1 C         141.7236  139.7515  163.1265 C.ar    1  UNL1        0.0579
      2 C         140.9601  139.8619  164.4129 C.ar    1  UNL1        0.0833
      3 N         141.7362  140.7521  165.3376 N.ar    1  UNL1       -0.3028
      4 C         142.9794  141.1919  164.6227 C.ar    1  UNL1        0.0917
      5 C         144.1175  142.0755  165.0396 C.ar    1  UNL1        0.1561
      6 F         144.1253  142.6939  166.4062 F       1  UNL1       -0.2026
      7 C         145.2478  142.3408  164.0899 C.ar    1  UNL1        0.0311
      8 C         145.2401  141.7224  162.7233 C.ar    1  UNL1        0.0024
      9 C         144.1020  140.8387  162.3065 C.ar    1  UNL1        0.0017
     10 C         142.9716  140.5735  163.2562 C.ar    1  UNL1        0.0229
     11 C         141.3389  141.1352  166.7324 C.ar    1  UNL1        0.0641
     12 C         140.8151  142.5129  167.0113 C.ar    1  UNL1        0.0176
     13 C         140.4178  142.8961  168.4060 C.ar    1  UNL1        0.0026
     14 C         140.5443  141.9017  169.5219 C.ar    1  UNL1        0.0141
     15 C         141.0681  140.5241  169.2430 C.ar    1  UNL1        0.0026
     16 C         141.4654  140.1409  167.8482 C.ar    1  UNL1        0.0176
     17 C         140.1470  142.2848  170.9166 C.2     1  UNL1        0.0729
     18 O         140.6364  141.4798  172.0838 O.co2   1  UNL1       -0.5446
     19 O         139.2603  143.4731  171.1441 O.co2   1  UNL1       -0.5446
     20 C         141.3115  138.9584  161.9219 C.2     1  UNL1        0.1976
     21 O         142.0547  137.7076  161.5572 O.2     1  UNL1       -0.2865
     22 C         141.7904  140.7367  159.5537 C.3     1  UNL1        0.0312
     23 C         140.3955  140.3053  159.8977 C.ar    1  UNL1       -0.0179
     24 C         139.2402  140.7630  159.0577 C.ar    1  UNL1       -0.0041
     25 C         137.8454  140.3316  159.4018 C.ar    1  UNL1        0.0005
     26 C         137.6060  139.4425  160.5859 C.ar    1  UNL1        0.0115
     27 C         138.7613  138.9847  161.4259 C.ar    1  UNL1        0.0604
     28 CL        138.5218  138.0955  162.6100 Cl      1  UNL1       -0.0822
     29 C         140.1561  139.4161  161.0818 C.ar    1  UNL1        0.0456
@<TRIPOS>UNITY_ATOM_ATTR
18 1
charge -1
@<TRIPOS>BOND
     1    22    23    1
     2    23    24   ar
     3    24    25   ar
     4    25    26   ar
     5    26    27   ar
     6    27    28    1
     7    27    29   ar
     8    29    20    1
     9    20    21    2
    10    20     1    1
    11     1     2   ar
    12     2     3   ar
    13     3    11    1
    14    11    12   ar
    15    12    13   ar
    16    13    14   ar
    17    14    17    1
    18    17    18   ar
    19    17    19   ar
    20    14    15   ar
    21    15    16   ar
    22     3     4   ar
    23     4     5   ar
    24     5     6    1
    25     5     7   ar
    26     7     8   ar
    27     8     9   ar
    28     9    10   ar
    29    29    23   ar
    30    10     1   ar
    31    16    11   ar
    32    10     4   ar
@<TRIPOS>MOLECULE
*****
 29 32 0 0 0
SMALL
GASTEIGER

@<TRIPOS>ATOM
      1 C         139.1840  139.7952  163.2139 C.ar    1  UNL1        0.0579
      2 C         139.7075  139.5758  164.6023 C.ar    1  UNL1        0.0833
      3 N         139.6089  140.8750  165.3455 N.ar    1  UNL1       -0.3028
      4 C         139.0244  141.8973  164.4165 C.ar    1  UNL1        0.0917
      5 C         138.6974  143.3497  164.5999 C.ar    1  UNL1        0.1561
      6 F         138.9600  144.0170  165.9174 F       1  UNL1       -0.2026
      7 C         138.1078  144.1347  163.4659 C.ar    1  UNL1        0.0311
      8 C         137.8452  143.4674  162.1484 C.ar    1  UNL1        0.0024
      9 C         138.1722  142.0150  161.9650 C.ar    1  UNL1        0.0017
     10 C         138.7618  141.2300  163.0990 C.ar    1  UNL1        0.0229
     11 C         140.0222  141.1105  166.7681 C.ar    1  UNL1        0.0641
     12 C         139.3918  140.3162  167.8736 C.ar    1  UNL1        0.0176
     13 C         139.8051  140.5517  169.2962 C.ar    1  UNL1        0.0026
     14 C         140.8487  141.5814  169.6133 C.ar    1  UNL1        0.0141
     15 C         141.4790  142.3756  168.5079 C.ar    1  UNL1        0.0026
     16 C         141.0657  142.1401  167.0853 C.ar    1  UNL1        0.0176
     17 C         141.2620  141.8170  171.0359 C.2     1  UNL1        0.0729
     18 O         140.6611  140.9949  172.1374 O.co2   1  UNL1       -0.5446
     19 O         142.2761  142.8745  171.3569 O.co2   1  UNL1       -0.5446
     20 C         139.0977  138.7614  162.1305 C.2     1  UNL1        0.1976
     21 O         137.8673  137.9137  161.9989 O.2     1  UNL1       -0.2865
     22 C         138.8872  139.7760  159.3152 C.3     1  UNL1        0.0312
     23 C         140.1368  139.0825  159.7709 C.ar    1  UNL1       -0.0179
     24 C         141.2809  138.8964  158.8190 C.ar    1  UNL1       -0.0041
     25 C         142.5305  138.2030  159.2749 C.ar    1  UNL1        0.0005
     26 C         142.6358  137.6957  160.6825 C.ar    1  UNL1        0.0115
     27 C         141.4916  137.8818  161.6344 C.ar    1  UNL1        0.0604
     28 CL        141.5969  137.3745  163.0421 Cl      1  UNL1       -0.0822
     29 C         140.2420  138.5752  161.1786 C.ar    1  UNL1        0.0456
@<TRIPOS>UNITY_ATOM_ATTR
18 1
charge -1
@<TRIPOS>BOND
     1    22    23    1
     2    23    24   ar
     3    24    25   ar
     4    25    26   ar
     5    26    27   ar
     6    27    28    1
     7    27    29   ar
     8    29    20    1
     9    20    21    2
    10    20     1    1
    11     1     2   ar
    12     2     3   ar
    13     3    11    1
    14    11    12   ar
    15    12    13   ar
    16    13    14   ar
    17    14    17    1
    18    17    18   ar
    19    17    19   ar
    20    14    15   ar
    21    15    16   ar
    22     3     4   ar
    23     4     5   ar
    24     5     6    1
    25     5     7   ar
    26     7     8   ar
    27     8     9   ar
    28     9    10   ar
    29    29    23   ar
    30    10     1   ar
    31    16    11   ar
    32    10     4   ar
@<TRIPOS>MOLECULE
*****
 29 32 0 0 0
SMALL
GASTEIGER

@<TRIPOS>ATOM
      1 C         141.4681  139.0188  163.6894 C.ar    1  UNL1        0.0579
      2 C         140.7315  139.3424  164.9554 C.ar    1  UNL1        0.0833
      3 N         141.5090  140.3955  165.6878 N.ar    1  UNL1       -0.3028
      4 C         142.7262  140.7227  164.8745 C.ar    1  UNL1        0.0917
      5 C         143.8543  141.6855  165.0990 C.ar    1  UNL1        0.1561
      6 F         143.8796  142.5363  166.3341 F       1  UNL1       -0.2026
      7 C         144.9570  141.7974  164.0884 C.ar    1  UNL1        0.0311
      8 C         144.9317  140.9466  162.8533 C.ar    1  UNL1        0.0024
      9 C         143.8037  139.9838  162.6288 C.ar    1  UNL1        0.0017
     10 C         142.7009  139.8719  163.6394 C.ar    1  UNL1        0.0229
     11 C         141.1351  141.0129  167.0027 C.ar    1  UNL1        0.0641
     12 C         140.7786  142.4683  167.0734 C.ar    1  UNL1        0.0176
     13 C         140.4046  143.0858  168.3883 C.ar    1  UNL1        0.0026
     14 C         140.3872  142.2480  169.6324 C.ar    1  UNL1        0.0141
     15 C         140.7437  140.7927  169.5616 C.ar    1  UNL1        0.0026
     16 C         141.1176  140.1752  168.2467 C.ar    1  UNL1        0.0176
     17 C         140.0133  142.8654  170.9473 C.2     1  UNL1        0.0729
     18 O         140.3638  142.1699  172.2292 O.co2   1  UNL1       -0.5446
     19 O         139.2889  144.1785  170.9802 O.co2   1  UNL1       -0.5446
     20 C         141.0460  138.0179  162.6550 C.2     1  UNL1        0.1976
     21 O         141.0514  136.5540  162.9817 O.2     1  UNL1       -0.2865
     22 C         138.3089  139.1795  162.2568 C.3     1  UNL1        0.0312
     23 C         139.2499  139.0618  161.0946 C.ar    1  UNL1       -0.0179
     24 C         138.8224  139.5248  159.7335 C.ar    1  UNL1       -0.0041
     25 C         139.7634  139.4070  158.5714 C.ar    1  UNL1        0.0005
     26 C         141.1320  138.8262  158.7705 C.ar    1  UNL1        0.0115
     27 C         141.5596  138.3631  160.1316 C.ar    1  UNL1        0.0604
     28 CL        142.9281  137.7823  160.3307 Cl      1  UNL1       -0.0822
     29 C         140.6185  138.4809  161.2937 C.ar    1  UNL1        0.0456
@<TRIPOS>UNITY_ATOM_ATTR
18 1
charge -1
@<TRIPOS>BOND
     1    22    23    1
     2    23    24   ar
     3    24    25   ar
     4    25    26   ar
     5    26    27   ar
     6    27    28    1
     7    27    29   ar
     8    29    20    1
     9    20    21    2
    10    20     1    1
    11     1     2   ar
    12     2     3   ar
    13     3    11    1
    14    11    12   ar
    15    12    13   ar
    16    13    14   ar
    17    14    17    1
    18    17    18   ar
    19    17    19   ar
    20    14    15   ar
    21    15    16   ar
    22     3     4   ar
    23     4     5   ar
    24     5     6    1
    25     5     7   ar
    26     7     8   ar
    27     8     9   ar
    28     9    10   ar
    29    29    23   ar
    30    10     1   ar
    31    16    11   ar
    32    10     4   ar
@<TRIPOS>MOLECULE
*****
 29 32 0 0 0
SMALL
GASTEIGER

@<TRIPOS>ATOM
      1 C         140.6396  139.6592  162.8714 C.ar    1  UNL1        0.0579
      2 C         140.9046  139.6553  164.3478 C.ar    1  UNL1        0.0833
      3 N         140.1288  140.7832  164.9609 N.ar    1  UNL1       -0.3028
      4 C         139.3843  141.4842  163.8635 C.ar    1  UNL1        0.0917
      5 C         138.4597  142.6653  163.8733 C.ar    1  UNL1        0.1561
      6 F         138.1440  143.3600  165.1647 F       1  UNL1       -0.2026
      7 C         137.8509  143.1517  162.5916 C.ar    1  UNL1        0.0311
      8 C         138.1666  142.4570  161.3002 C.ar    1  UNL1        0.0024
      9 C         139.0911  141.2759  161.2904 C.ar    1  UNL1        0.0017
     10 C         139.7000  140.7895  162.5721 C.ar    1  UNL1        0.0229
     11 C         140.1021  141.1464  166.4160 C.ar    1  UNL1        0.0641
     12 C         139.5433  140.1817  167.4197 C.ar    1  UNL1        0.0176
     13 C         139.5166  140.5449  168.8749 C.ar    1  UNL1        0.0026
     14 C         140.0487  141.8727  169.3263 C.ar    1  UNL1        0.0141
     15 C         140.6075  142.8373  168.3227 C.ar    1  UNL1        0.0026
     16 C         140.6342  142.4741  166.8676 C.ar    1  UNL1        0.0176
     17 C         140.0221  142.2359  170.7815 C.2     1  UNL1        0.0729
     18 O         139.2336  143.4254  171.2433 O.co2   1  UNL1       -0.5446
     19 O         140.7839  141.4095  171.7747 O.co2   1  UNL1       -0.5446
     20 C         141.2134  138.7010  161.8701 C.2     1  UNL1        0.1976
     21 O         141.1702  137.2252  162.1340 O.2     1  UNL1       -0.2865
     22 C         143.9185  139.9963  161.9413 C.3     1  UNL1        0.0312
     23 C         143.1831  139.8665  160.6403 C.ar    1  UNL1       -0.0179
     24 C         143.8003  140.3843  159.3751 C.ar    1  UNL1       -0.0041
     25 C         143.0650  140.2544  158.0742 C.ar    1  UNL1        0.0005
     26 C         141.7125  139.6068  158.0385 C.ar    1  UNL1        0.0115
     27 C         141.0953  139.0890  159.3038 C.ar    1  UNL1        0.0604
     28 CL        139.7428  138.4414  159.2682 Cl      1  UNL1       -0.0822
     29 C         141.8306  139.2189  160.6047 C.ar    1  UNL1        0.0456
@<TRIPOS>UNITY_ATOM_ATTR
18 1
charge -1
@<TRIPOS>BOND
     1    22    23    1
     2    23    24   ar
     3    24    25   ar
     4    25    26   ar
     5    26    27   ar
     6    27    28    1
     7    27    29   ar
     8    29    20    1
     9    20    21    2
    10    20     1    1
    11     1     2   ar
    12     2     3   ar
    13     3    11    1
    14    11    12   ar
    15    12    13   ar
    16    13    14   ar
    17    14    17    1
    18    17    18   ar
    19    17    19   ar
    20    14    15   ar
    21    15    16   ar
    22     3     4   ar
    23     4     5   ar
    24     5     6    1
    25     5     7   ar
    26     7     8   ar
    27     8     9   ar
    28     9    10   ar
    29    29    23   ar
    30    10     1   ar
    31    16    11   ar
    32    10     4   ar
@<TRIPOS>MOLECULE
*****
 29 32 0 0 0
SMALL
GASTEIGER

@<TRIPOS>ATOM
      1 C         140.0960  142.9803  162.7780 C.ar    1  UNL1        0.0579
      2 C         139.4854  142.4795  164.0533 C.ar    1  UNL1        0.0833
      3 N         140.5792  142.3511  165.0717 N.ar    1  UNL1       -0.3028
      4 C         141.8658  142.7726  164.4258 C.ar    1  UNL1        0.0917
      5 C         143.2706  142.8525  164.9453 C.ar    1  UNL1        0.1561
      6 F         143.5693  142.4636  166.3629 F       1  UNL1       -0.2026
      7 C         144.3768  143.3213  164.0473 C.ar    1  UNL1        0.0311
      8 C         144.0781  143.7102  162.6297 C.ar    1  UNL1        0.0024
      9 C         142.6733  143.6303  162.1102 C.ar    1  UNL1        0.0017
     10 C         141.5671  143.1615  163.0082 C.ar    1  UNL1        0.0229
     11 C         140.4153  141.8834  166.4874 C.ar    1  UNL1        0.0641
     12 C         140.5377  142.8604  167.6191 C.ar    1  UNL1        0.0176
     13 C         140.3738  142.3926  169.0348 C.ar    1  UNL1        0.0026
     14 C         140.0874  140.9479  169.3190 C.ar    1  UNL1        0.0141
     15 C         139.9650  139.9710  168.1874 C.ar    1  UNL1        0.0026
     16 C         140.1289  140.4387  166.7717 C.ar    1  UNL1        0.0176
     17 C         139.9235  140.4802  170.7347 C.2     1  UNL1        0.0729
     18 O         138.9638  139.3719  171.0521 O.co2   1  UNL1       -0.5446
     19 O         140.7194  141.1207  171.8331 O.co2   1  UNL1       -0.5446
     20 C         139.3639  143.2523  161.4973 C.2     1  UNL1        0.1976
     21 O         137.8743  143.0879  161.4354 O.2     1  UNL1       -0.2865
     22 C         140.3620  141.2095  159.5401 C.3     1  UNL1        0.0312
     23 C         140.6206  142.6674  159.2999 C.ar    1  UNL1       -0.0179
     24 C         141.3783  143.1038  158.0811 C.ar    1  UNL1       -0.0041
     25 C         141.6369  144.5617  157.8409 C.ar    1  UNL1        0.0005
     26 C         141.1378  145.5831  158.8195 C.ar    1  UNL1        0.0115
     27 C         140.3802  145.1467  160.0383 C.ar    1  UNL1        0.0604
     28 CL        139.8812  146.1681  161.0169 Cl      1  UNL1       -0.0822
     29 C         140.1216  143.6888  160.2785 C.ar    1  UNL1        0.0456
@<TRIPOS>UNITY_ATOM_ATTR
18 1
charge -1
@<TRIPOS>BOND
     1    22    23    1
     2    23    24   ar
     3    24    25   ar
     4    25    26   ar
     5    26    27   ar
     6    27    28    1
     7    27    29   ar
     8    29    20    1
     9    20    21    2
    10    20     1    1
    11     1     2   ar
    12     2     3   ar
    13     3    11    1
    14    11    12   ar
    15    12    13   ar
    16    13    14   ar
    17    14    17    1
    18    17    18   ar
    19    17    19   ar
    20    14    15   ar
    21    15    16   ar
    22     3     4   ar
    23     4     5   ar
    24     5     6    1
    25     5     7   ar
    26     7     8   ar
    27     8     9   ar
    28     9    10   ar
    29    29    23   ar
    30    10     1   ar
    31    16    11   ar
    32    10     4   ar
@<TRIPOS>MOLECULE
*****
 29 32 0 0 0
SMALL
GASTEIGER

@<TRIPOS>ATOM
      1 C         139.5063  139.9469  162.9195 C.ar    1  UNL1        0.0579
      2 C         139.0135  140.4923  164.2271 C.ar    1  UNL1        0.0833
      3 N         140.1626  140.4933  165.1913 N.ar    1  UNL1       -0.3028
      4 C         141.3654  139.9486  164.4797 C.ar    1  UNL1        0.0917
      5 C         142.7776  139.7165  164.9288 C.ar    1  UNL1        0.1561
      6 F         143.1833  140.0541  166.3328 F       1  UNL1       -0.2026
      7 C         143.7842  139.1466  163.9738 C.ar    1  UNL1        0.0311
      8 C         143.3786  138.8090  162.5697 C.ar    1  UNL1        0.0024
      9 C         141.9664  139.0411  162.1206 C.ar    1  UNL1        0.0017
     10 C         140.9598  139.6109  163.0756 C.ar    1  UNL1        0.0229
     11 C         140.1168  140.9575  166.6169 C.ar    1  UNL1        0.0641
     12 C         140.6054  142.3299  166.9749 C.ar    1  UNL1        0.0176
     13 C         140.5596  142.7942  168.4005 C.ar    1  UNL1        0.0026
     14 C         140.0254  141.8861  169.4682 C.ar    1  UNL1        0.0141
     15 C         139.5369  140.5138  169.1103 C.ar    1  UNL1        0.0026
     16 C         139.5826  140.0496  167.6846 C.ar    1  UNL1        0.0176
     17 C         139.9796  142.3503  170.8938 C.2     1  UNL1        0.0729
     18 O         139.1762  143.5622  171.2626 O.co2   1  UNL1       -0.5446
     19 O         140.7373  141.6027  171.9506 O.co2   1  UNL1       -0.5446
     20 C         138.6889  139.7689  161.6744 C.2     1  UNL1        0.1976
     21 O         137.5640  138.7770  161.6511 O.2     1  UNL1       -0.2865
     22 C         140.0180  138.4838  159.3118 C.3     1  UNL1        0.0312
     23 C         139.6612  139.9402  159.2711 C.ar    1  UNL1       -0.0179
     24 C         139.9689  140.7539  158.0492 C.ar    1  UNL1       -0.0041
     25 C         139.6121  142.2103  158.0087 C.ar    1  UNL1        0.0005
     26 C         138.9475  142.8528  159.1900 C.ar    1  UNL1        0.0115
     27 C         138.6398  142.0391  160.4119 C.ar    1  UNL1        0.0604
     28 CL        137.9753  142.6817  161.5932 Cl      1  UNL1       -0.0822
     29 C         138.9967  140.5827  160.4524 C.ar    1  UNL1        0.0456
@<TRIPOS>UNITY_ATOM_ATTR
18 1
charge -1
@<TRIPOS>BOND
     1    22    23    1
     2    23    24   ar
     3    24    25   ar
     4    25    26   ar
     5    26    27   ar
     6    27    28    1
     7    27    29   ar
     8    29    20    1
     9    20    21    2
    10    20     1    1
    11     1     2   ar
    12     2     3   ar
    13     3    11    1
    14    11    12   ar
    15    12    13   ar
    16    13    14   ar
    17    14    17    1
    18    17    18   ar
    19    17    19   ar
    20    14    15   ar
    21    15    16   ar
    22     3     4   ar
    23     4     5   ar
    24     5     6    1
    25     5     7   ar
    26     7     8   ar
    27     8     9   ar
    28     9    10   ar
    29    29    23   ar
    30    10     1   ar
    31    16    11   ar
    32    10     4   ar
