@<TRIPOS>MOLECULE
*****
 29 32 0 0 0
SMALL
GASTEIGER

@<TRIPOS>ATOM
      1 C         141.4183  144.7897  159.1213 C.ar    1  UNL1        0.1073
      2 C         142.3983  143.6548  159.1592 C.ar    1  UNL1        0.0199
      3 C         142.6267  142.9034  160.4372 C.ar    1  UNL1        0.0201
      4 C         141.8751  143.2868  161.6773 C.ar    1  UNL1        0.0787
      5 C         140.8950  144.4217  161.6394 C.ar    1  UNL1        0.0996
      6 C         140.6666  145.1731  160.3615 C.ar    1  UNL1        0.0389
      7 N         140.3047  144.5704  163.0104 N.ar    1  UNL1       -0.2309
      8 C         140.9201  143.5274  163.8956 C.ar    1  UNL1        0.1207
      9 N         141.8906  142.7341  163.0716 N.ar    1  UNL1       -0.3135
     10 C         142.6630  141.6109  163.6975 C.3     1  UNL1        0.1229
     11 C         142.4650  141.2810  165.1474 C.3     1  UNL1        0.0783
     12 N         143.2375  140.1578  165.7732 N.3     1  UNL1       -0.3204
     13 C         141.4945  142.0743  165.9713 C.3     1  UNL1        0.0482
     14 C         140.7220  143.1975  165.3454 C.3     1  UNL1        0.0698
     15 H         143.8451  139.7317  165.0735 H       1  UNL1        0.1189
     16 H         142.5886  139.4573  166.1319 H       1  UNL1        0.1189
     17 C         141.2965  141.7444  167.4211 C.ar    1  UNL1        0.0091
     18 C         140.0239  141.0927  167.8750 C.ar    1  UNL1        0.0300
     19 C         139.8259  140.7628  169.3248 C.ar    1  UNL1        0.1672
     20 F         138.5534  140.1112  169.7787 F       1  UNL1       -0.2018
     21 C         140.9005  141.0846  170.3207 C.ar    1  UNL1        0.1696
     22 F         140.7024  140.7547  171.7705 F       1  UNL1       -0.2017
     23 C         142.1730  141.7362  169.8668 C.ar    1  UNL1        0.0612
     24 C         142.3710  142.0661  168.4170 C.ar    1  UNL1        0.1386
     25 F         143.6436  142.7177  167.9631 F       1  UNL1       -0.2044
     26 C         140.9615  146.2925  156.5654 C.3     1  UNL1        0.1816
     27 S         141.1899  145.5411  157.8434 S.O2    1  UNL1        0.0105
     28 O         139.8570  144.8709  157.6875 O.2     1  UNL1       -0.1686
     29 O         142.5227  146.2113  157.9992 O.2     1  UNL1       -0.1686
@<TRIPOS>BOND
     1    26    27    1
     2    27    28    2
     3    27    29    2
     4    27     1    1
     5     1     2   ar
     6     2     3   ar
     7     3     4   ar
     8     4     5   ar
     9     5     6   ar
    10     5     7   ar
    11     7     8   ar
    12     8     9   ar
    13     9    10    1
    14    10    11    1
    15    11    12    1
    16    11    13    1
    17    13    17    1
    18    17    18   ar
    19    18    19   ar
    20    19    20    1
    21    19    21   ar
    22    21    22    1
    23    21    23   ar
    24    23    24   ar
    25    24    25    1
    26    13    14    1
    27     6     1   ar
    28    14     8    1
    29     9     4   ar
    30    24    17   ar
    31    12    15    1
    32    12    16    1
@<TRIPOS>MOLECULE
*****
 29 32 0 0 0
SMALL
GASTEIGER

@<TRIPOS>ATOM
      1 C         141.9066  138.3831  159.3130 C.ar    1  UNL1        0.1073
      2 C         142.9275  137.6290  160.1124 C.ar    1  UNL1        0.0199
      3 C         143.0207  137.8351  161.5952 C.ar    1  UNL1        0.0201
      4 C         142.0929  138.7953  162.2787 C.ar    1  UNL1        0.0787
      5 C         141.0720  139.5494  161.4794 C.ar    1  UNL1        0.0996
      6 C         140.9788  139.3433  159.9965 C.ar    1  UNL1        0.0389
      7 N         140.2981  140.4229  162.4219 N.ar    1  UNL1       -0.2309
      8 C         140.8409  140.2086  163.8038 C.ar    1  UNL1        0.1207
      9 N         141.9501  139.2027  163.7153 N.ar    1  UNL1       -0.3135
     10 C         142.6868  138.7877  164.9542 C.3     1  UNL1        0.1229
     11 C         142.3143  139.3785  166.2817 C.3     1  UNL1        0.0783
     12 N         143.0511  138.9635  167.5207 N.3     1  UNL1       -0.3204
     13 C         141.2051  140.3844  166.3702 C.3     1  UNL1        0.0482
     14 C         140.4684  140.7994  165.1312 C.3     1  UNL1        0.0698
     15 H         143.7665  138.2784  167.2774 H       1  UNL1        0.1189
     16 H         142.3955  138.5497  168.1835 H       1  UNL1        0.1189
     17 C         140.8326  140.9752  167.6977 C.ar    1  UNL1        0.0091
     18 C         141.6176  142.1264  168.2531 C.ar    1  UNL1        0.0300
     19 C         141.2451  142.7173  169.5805 C.ar    1  UNL1        0.1672
     20 F         142.0302  143.8685  170.1359 F       1  UNL1       -0.2018
     21 C         140.0875  142.1569  170.3525 C.ar    1  UNL1        0.1696
     22 F         139.7150  142.7478  171.6800 F       1  UNL1       -0.2017
     23 C         139.3025  141.0057  169.7971 C.ar    1  UNL1        0.0612
     24 C         139.6750  140.4149  168.4697 C.ar    1  UNL1        0.1386
     25 F         138.8900  139.2637  167.9143 F       1  UNL1       -0.2044
     26 C         141.7203  137.9709  156.3473 C.3     1  UNL1        0.1816
     27 S         141.8134  138.1770  157.8302 S.O2    1  UNL1        0.0105
     28 O         140.3165  138.1685  157.9254 O.2     1  UNL1       -0.1686
     29 O         143.3104  138.1855  157.7349 O.2     1  UNL1       -0.1686
@<TRIPOS>BOND
     1    26    27    1
     2    27    28    2
     3    27    29    2
     4    27     1    1
     5     1     2   ar
     6     2     3   ar
     7     3     4   ar
     8     4     5   ar
     9     5     6   ar
    10     5     7   ar
    11     7     8   ar
    12     8     9   ar
    13     9    10    1
    14    10    11    1
    15    11    12    1
    16    11    13    1
    17    13    17    1
    18    17    18   ar
    19    18    19   ar
    20    19    20    1
    21    19    21   ar
    22    21    22    1
    23    21    23   ar
    24    23    24   ar
    25    24    25    1
    26    13    14    1
    27     6     1   ar
    28    14     8    1
    29     9     4   ar
    30    24    17   ar
    31    12    15    1
    32    12    16    1
@<TRIPOS>MOLECULE
*****
 29 32 0 0 0
SMALL
GASTEIGER

@<TRIPOS>ATOM
      1 C         140.5222  137.9701  157.7575 C.ar    1  UNL1        0.1073
      2 C         142.0065  137.7812  157.8633 C.ar    1  UNL1        0.0199
      3 C         142.7107  138.0816  159.1532 C.ar    1  UNL1        0.0201
      4 C         141.9307  138.5709  160.3373 C.ar    1  UNL1        0.0787
      5 C         140.4464  138.7598  160.2315 C.ar    1  UNL1        0.0996
      6 C         139.7422  138.4594  158.9416 C.ar    1  UNL1        0.0389
      7 N         139.9461  139.2518  161.5573 N.ar    1  UNL1       -0.2309
      8 C         141.1212  139.3670  162.4824 C.ar    1  UNL1        0.1207
      9 N         142.3477  138.9461  161.7284 N.ar    1  UNL1       -0.3135
     10 C         143.6859  138.9590  162.4060 C.3     1  UNL1        0.1229
     11 C         143.7976  139.3927  163.8376 C.3     1  UNL1        0.0783
     12 N         145.1357  139.4056  164.5152 N.3     1  UNL1       -0.3204
     13 C         142.5710  139.8135  164.5916 C.3     1  UNL1        0.0482
     14 C         141.2328  139.8007  163.9140 C.3     1  UNL1        0.0698
     15 H         145.8517  139.0922  163.8598 H       1  UNL1        0.1189
     16 H         145.1150  138.7802  165.3207 H       1  UNL1        0.1189
     17 C         142.6826  140.2472  166.0232 C.ar    1  UNL1        0.0091
     18 C         142.5496  139.2382  167.1251 C.ar    1  UNL1        0.0300
     19 C         142.6612  139.6719  168.5567 C.ar    1  UNL1        0.1672
     20 F         142.5281  138.6629  169.6586 F       1  UNL1       -0.2018
     21 C         142.9059  141.1146  168.8864 C.ar    1  UNL1        0.1696
     22 F         143.0175  141.5483  170.3179 F       1  UNL1       -0.2017
     23 C         143.0389  142.1237  167.7844 C.ar    1  UNL1        0.0612
     24 C         142.9273  141.6900  166.3529 C.ar    1  UNL1        0.1386
     25 F         143.0603  142.6990  165.2510 F       1  UNL1       -0.2044
     26 C         139.1137  137.3693  155.1778 C.3     1  UNL1        0.1816
     27 S         139.8180  137.6697  156.4676 S.O2    1  UNL1        0.0105
     28 O         138.8210  138.7515  156.7600 O.2     1  UNL1       -0.1686
     29 O         140.8150  136.5878  156.1753 O.2     1  UNL1       -0.1686
@<TRIPOS>BOND
     1    26    27    1
     2    27    28    2
     3    27    29    2
     4    27     1    1
     5     1     2   ar
     6     2     3   ar
     7     3     4   ar
     8     4     5   ar
     9     5     6   ar
    10     5     7   ar
    11     7     8   ar
    12     8     9   ar
    13     9    10    1
    14    10    11    1
    15    11    12    1
    16    11    13    1
    17    13    17    1
    18    17    18   ar
    19    18    19   ar
    20    19    20    1
    21    19    21   ar
    22    21    22    1
    23    21    23   ar
    24    23    24   ar
    25    24    25    1
    26    13    14    1
    27     6     1   ar
    28    14     8    1
    29     9     4   ar
    30    24    17   ar
    31    12    15    1
    32    12    16    1
@<TRIPOS>MOLECULE
*****
 29 32 0 0 0
SMALL
GASTEIGER

@<TRIPOS>ATOM
      1 C         141.9934  138.2856  159.0430 C.ar    1  UNL1        0.1073
      2 C         143.0230  137.5326  159.8321 C.ar    1  UNL1        0.0199
      3 C         143.1316  137.7399  161.3138 C.ar    1  UNL1        0.0201
      4 C         142.2106  138.7001  162.0063 C.ar    1  UNL1        0.0787
      5 C         141.1810  139.4531  161.2171 C.ar    1  UNL1        0.0996
      6 C         141.0724  139.2459  159.7355 C.ar    1  UNL1        0.0389
      7 N         140.4167  140.3270  162.1671 N.ar    1  UNL1       -0.2309
      8 C         140.9740  140.1140  163.5433 C.ar    1  UNL1        0.1207
      9 N         142.0827  139.1085  163.4439 N.ar    1  UNL1       -0.3135
     10 C         142.8326  138.6948  164.6753 C.3     1  UNL1        0.1229
     11 C         142.4737  139.2865  166.0063 C.3     1  UNL1        0.0783
     12 N         143.2236  138.8727  167.2377 N.3     1  UNL1       -0.3204
     13 C         141.3650  140.2919  166.1056 C.3     1  UNL1        0.0482
     14 C         140.6152  140.7057  164.8741 C.3     1  UNL1        0.0698
     15 H         143.9368  138.1877  166.9874 H       1  UNL1        0.1189
     16 H         142.5752  138.4591  167.9077 H       1  UNL1        0.1189
     17 C         141.0062  140.8836  167.4365 C.ar    1  UNL1        0.0091
     18 C         139.8305  140.3517  168.2013 C.ar    1  UNL1        0.0300
     19 C         139.4717  140.9434  169.5321 C.ar    1  UNL1        0.1672
     20 F         138.2960  140.4115  170.2969 F       1  UNL1       -0.2018
     21 C         140.2885  142.0670  170.0981 C.ar    1  UNL1        0.1696
     22 F         139.9297  142.6586  171.4289 F       1  UNL1       -0.2017
     23 C         141.4642  142.5988  169.3333 C.ar    1  UNL1        0.0612
     24 C         141.8230  142.0072  168.0025 C.ar    1  UNL1        0.1386
     25 F         142.9987  142.5390  167.2377 F       1  UNL1       -0.2044
     26 C         141.7761  137.8711  156.0797 C.3     1  UNL1        0.1816
     27 S         141.8848  138.0783  157.5614 S.O2    1  UNL1        0.0105
     28 O         140.3898  138.0371  157.6767 O.2     1  UNL1       -0.1686
     29 O         143.3798  138.1196  157.4460 O.2     1  UNL1       -0.1686
@<TRIPOS>BOND
     1    26    27    1
     2    27    28    2
     3    27    29    2
     4    27     1    1
     5     1     2   ar
     6     2     3   ar
     7     3     4   ar
     8     4     5   ar
     9     5     6   ar
    10     5     7   ar
    11     7     8   ar
    12     8     9   ar
    13     9    10    1
    14    10    11    1
    15    11    12    1
    16    11    13    1
    17    13    17    1
    18    17    18   ar
    19    18    19   ar
    20    19    20    1
    21    19    21   ar
    22    21    22    1
    23    21    23   ar
    24    23    24   ar
    25    24    25    1
    26    13    14    1
    27     6     1   ar
    28    14     8    1
    29     9     4   ar
    30    24    17   ar
    31    12    15    1
    32    12    16    1
@<TRIPOS>MOLECULE
*****
 29 32 0 0 0
SMALL
GASTEIGER

@<TRIPOS>ATOM
      1 C         141.9582  138.0283  158.2361 C.ar    1  UNL1        0.1073
      2 C         140.5237  138.4657  158.2053 C.ar    1  UNL1        0.0199
      3 C         139.8666  138.9705  159.4556 C.ar    1  UNL1        0.0201
      4 C         140.6438  139.0379  160.7367 C.ar    1  UNL1        0.0787
      5 C         142.0783  138.6005  160.7675 C.ar    1  UNL1        0.0996
      6 C         142.7354  138.0957  159.5172 C.ar    1  UNL1        0.0389
      7 N         142.5875  138.7795  162.1671 N.ar    1  UNL1       -0.2309
      8 C         141.4678  139.3276  163.0012 C.ar    1  UNL1        0.1207
      9 N         140.2665  139.4873  162.1172 N.ar    1  UNL1       -0.3135
     10 C         138.9843  140.0213  162.6835 C.3     1  UNL1        0.1229
     11 C         138.9033  140.3956  164.1338 C.3     1  UNL1        0.0783
     12 N         137.6210  140.9296  164.7001 N.3     1  UNL1       -0.3204
     13 C         140.1045  140.2359  165.0178 C.3     1  UNL1        0.0482
     14 C         141.3868  139.7018  164.4515 C.3     1  UNL1        0.0698
     15 H         136.9157  140.9712  163.9644 H       1  UNL1        0.1189
     16 H         137.7781  141.8655  165.0738 H       1  UNL1        0.1189
     17 C         140.0236  140.6101  166.4681 C.ar    1  UNL1        0.0091
     18 C         140.7080  141.8501  166.9621 C.ar    1  UNL1        0.0300
     19 C         140.6271  142.2244  168.4123 C.ar    1  UNL1        0.1672
     20 F         141.3116  143.4644  168.9063 F       1  UNL1       -0.2018
     21 C         139.8616  141.3587  169.3687 C.ar    1  UNL1        0.1696
     22 F         139.7806  141.7330  170.8190 F       1  UNL1       -0.2017
     23 C         139.1771  140.1187  168.8747 C.ar    1  UNL1        0.0612
     24 C         139.2581  139.7444  167.4245 C.ar    1  UNL1        0.1386
     25 F         138.5736  138.5045  166.9305 F       1  UNL1       -0.2044
     26 C         143.2725  137.0186  155.7355 C.3     1  UNL1        0.1816
     27 S         142.6154  137.5234  156.9858 S.O2    1  UNL1        0.0105
     28 O         143.7362  138.5011  157.1802 O.2     1  UNL1       -0.1686
     29 O         141.4945  136.5457  156.7914 O.2     1  UNL1       -0.1686
@<TRIPOS>BOND
     1    26    27    1
     2    27    28    2
     3    27    29    2
     4    27     1    1
     5     1     2   ar
     6     2     3   ar
     7     3     4   ar
     8     4     5   ar
     9     5     6   ar
    10     5     7   ar
    11     7     8   ar
    12     8     9   ar
    13     9    10    1
    14    10    11    1
    15    11    12    1
    16    11    13    1
    17    13    17    1
    18    17    18   ar
    19    18    19   ar
    20    19    20    1
    21    19    21   ar
    22    21    22    1
    23    21    23   ar
    24    23    24   ar
    25    24    25    1
    26    13    14    1
    27     6     1   ar
    28    14     8    1
    29     9     4   ar
    30    24    17   ar
    31    12    15    1
    32    12    16    1
@<TRIPOS>MOLECULE
*****
 29 32 0 0 0
SMALL
GASTEIGER

@<TRIPOS>ATOM
      1 C         140.6979  144.5814  159.0750 C.ar    1  UNL1        0.1073
      2 C         139.5758  143.5948  159.2072 C.ar    1  UNL1        0.0199
      3 C         139.3462  142.8904  160.5115 C.ar    1  UNL1        0.0201
      4 C         140.2387  143.1726  161.6835 C.ar    1  UNL1        0.0787
      5 C         141.3608  144.1592  161.5513 C.ar    1  UNL1        0.0996
      6 C         141.5903  144.8636  160.2471 C.ar    1  UNL1        0.0389
      7 N         142.0716  144.2323  162.8703 N.ar    1  UNL1       -0.2309
      8 C         141.3888  143.2908  163.8175 C.ar    1  UNL1        0.1207
      9 N         140.2560  142.6359  163.0841 N.ar    1  UNL1       -0.3135
     10 C         139.3865  141.6355  163.7864 C.3     1  UNL1        0.1229
     11 C         139.6499  141.2899  165.2221 C.3     1  UNL1        0.0783
     12 N         138.7804  140.2894  165.9244 N.3     1  UNL1       -0.3204
     13 C         140.7827  141.9448  165.9556 C.3     1  UNL1        0.0482
     14 C         141.6521  142.9453  165.2532 C.3     1  UNL1        0.0698
     15 H         138.0666  139.9482  165.2806 H       1  UNL1        0.1189
     16 H         138.3315  140.7324  166.7260 H       1  UNL1        0.1189
     17 C         141.0460  141.5992  167.3913 C.ar    1  UNL1        0.0091
     18 C         141.7186  140.3046  167.7399 C.ar    1  UNL1        0.0300
     19 C         141.9819  139.9591  169.1756 C.ar    1  UNL1        0.1672
     20 F         142.6545  138.6644  169.5242 F       1  UNL1       -0.2018
     21 C         141.5727  140.9082  170.2626 C.ar    1  UNL1        0.1696
     22 F         141.8361  140.5626  171.6983 F       1  UNL1       -0.2017
     23 C         140.9001  142.2028  169.9140 C.ar    1  UNL1        0.0612
     24 C         140.6368  142.5484  168.4783 C.ar    1  UNL1        0.1386
     25 F         139.9642  143.8430  168.1297 F       1  UNL1       -0.2044
     26 C         141.1570  145.9902  156.4665 C.3     1  UNL1        0.1816
     27 S         140.9275  145.2858  157.7707 S.O2    1  UNL1        0.0105
     28 O         139.6568  144.6996  157.2305 O.2     1  UNL1       -0.1686
     29 O         142.1981  145.8720  158.3110 O.2     1  UNL1       -0.1686
@<TRIPOS>BOND
     1    26    27    1
     2    27    28    2
     3    27    29    2
     4    27     1    1
     5     1     2   ar
     6     2     3   ar
     7     3     4   ar
     8     4     5   ar
     9     5     6   ar
    10     5     7   ar
    11     7     8   ar
    12     8     9   ar
    13     9    10    1
    14    10    11    1
    15    11    12    1
    16    11    13    1
    17    13    17    1
    18    17    18   ar
    19    18    19   ar
    20    19    20    1
    21    19    21   ar
    22    21    22    1
    23    21    23   ar
    24    23    24   ar
    25    24    25    1
    26    13    14    1
    27     6     1   ar
    28    14     8    1
    29     9     4   ar
    30    24    17   ar
    31    12    15    1
    32    12    16    1
@<TRIPOS>MOLECULE
*****
 29 32 0 0 0
SMALL
GASTEIGER

@<TRIPOS>ATOM
      1 C         142.9091  138.7609  158.4820 C.ar    1  UNL1        0.1073
      2 C         143.6163  140.0314  158.8504 C.ar    1  UNL1        0.0199
      3 C         143.5707  140.5325  160.2635 C.ar    1  UNL1        0.0201
      4 C         142.8178  139.7631  161.3081 C.ar    1  UNL1        0.0787
      5 C         142.1106  138.4927  160.9397 C.ar    1  UNL1        0.0996
      6 C         142.1563  137.9916  159.5266 C.ar    1  UNL1        0.0389
      7 N         141.4536  137.9527  162.1754 N.ar    1  UNL1       -0.2309
      8 C         141.7548  138.8895  163.3075 C.ar    1  UNL1        0.1207
      9 N         142.5979  140.0084  162.7715 N.ar    1  UNL1       -0.3135
     10 C         143.0565  141.1060  163.6852 C.3     1  UNL1        0.1229
     11 C         142.6719  141.0848  165.1350 C.3     1  UNL1        0.0783
     12 N         143.1305  142.1824  166.0487 N.3     1  UNL1       -0.3204
     13 C         141.8288  139.9659  165.6710 C.3     1  UNL1        0.0482
     14 C         141.3702  138.8682  164.7572 C.3     1  UNL1        0.0698
     15 H         143.6889  142.8532  165.5209 H       1  UNL1        0.1189
     16 H         143.6956  141.7859  166.7996 H       1  UNL1        0.1189
     17 C         141.4442  139.9446  167.1207 C.ar    1  UNL1        0.0091
     18 C         142.4487  139.5363  168.1572 C.ar    1  UNL1        0.0300
     19 C         142.0641  139.5150  169.6069 C.ar    1  UNL1        0.1672
     20 F         143.0686  139.1067  170.6434 F       1  UNL1       -0.2018
     21 C         140.6751  139.9021  170.0201 C.ar    1  UNL1        0.1696
     22 F         140.2905  139.8809  171.4697 F       1  UNL1       -0.2017
     23 C         139.6706  140.3105  168.9835 C.ar    1  UNL1        0.0612
     24 C         140.0552  140.3317  167.5339 C.ar    1  UNL1        0.1386
     25 F         139.0507  140.7400  166.4974 F       1  UNL1       -0.2044
     26 C         143.0004  137.7588  155.6558 C.3     1  UNL1        0.1816
     27 S         142.9548  138.2599  157.0689 S.O2    1  UNL1        0.0105
     28 O         144.1191  139.1624  156.7864 O.2     1  UNL1       -0.1686
     29 O         141.7904  137.3574  157.3513 O.2     1  UNL1       -0.1686
@<TRIPOS>BOND
     1    26    27    1
     2    27    28    2
     3    27    29    2
     4    27     1    1
     5     1     2   ar
     6     2     3   ar
     7     3     4   ar
     8     4     5   ar
     9     5     6   ar
    10     5     7   ar
    11     7     8   ar
    12     8     9   ar
    13     9    10    1
    14    10    11    1
    15    11    12    1
    16    11    13    1
    17    13    17    1
    18    17    18   ar
    19    18    19   ar
    20    19    20    1
    21    19    21   ar
    22    21    22    1
    23    21    23   ar
    24    23    24   ar
    25    24    25    1
    26    13    14    1
    27     6     1   ar
    28    14     8    1
    29     9     4   ar
    30    24    17   ar
    31    12    15    1
    32    12    16    1
@<TRIPOS>MOLECULE
*****
 29 32 0 0 0
SMALL
GASTEIGER

@<TRIPOS>ATOM
      1 C         142.0138  141.0642  168.2777 C.ar    1  UNL1        0.1073
      2 C         140.9795  142.1421  168.4125 C.ar    1  UNL1        0.0199
      3 C         140.4906  142.8689  167.1948 C.ar    1  UNL1        0.0201
      4 C         141.0360  142.5177  165.8423 C.ar    1  UNL1        0.0787
      5 C         142.0703  141.4398  165.7075 C.ar    1  UNL1        0.0996
      6 C         142.5592  140.7130  166.9252 C.ar    1  UNL1        0.0389
      7 N         142.4209  141.3129  164.2546 N.ar    1  UNL1       -0.2309
      8 C         141.6033  142.3124  163.4914 C.ar    1  UNL1        0.1207
      9 N         140.7474  143.0571  164.4727 N.ar    1  UNL1       -0.3135
     10 C         139.8158  144.1301  163.9924 C.3     1  UNL1        0.1229
     11 C         139.7401  144.4585  162.5306 C.3     1  UNL1        0.0783
     12 N         138.8084  145.5315  162.0503 N.3     1  UNL1       -0.3204
     13 C         140.5960  143.7138  161.5494 C.3     1  UNL1        0.0482
     14 C         141.5277  142.6408  162.0298 C.3     1  UNL1        0.0698
     15 H         138.3085  145.9287  162.8456 H       1  UNL1        0.1189
     16 H         138.1388  145.1312  161.3932 H       1  UNL1        0.1189
     17 C         140.5203  144.0422  160.0877 C.ar    1  UNL1        0.0091
     18 C         141.4601  145.0504  159.4959 C.ar    1  UNL1        0.0300
     19 C         141.3844  145.3788  158.0342 C.ar    1  UNL1        0.1672
     20 F         142.3242  146.3870  157.4424 F       1  UNL1       -0.2018
     21 C         140.3690  144.6989  157.1644 C.ar    1  UNL1        0.1696
     22 F         140.2933  145.0272  155.7028 F       1  UNL1       -0.2017
     23 C         139.4292  143.6906  157.7563 C.ar    1  UNL1        0.0612
     24 C         139.5049  143.3623  159.2179 C.ar    1  UNL1        0.1386
     25 F         138.5651  142.3540  159.8098 F       1  UNL1       -0.2044
     26 C         142.9916  139.6106  170.7130 C.3     1  UNL1        0.1816
     27 S         142.5027  140.3374  169.4953 S.O2    1  UNL1        0.0105
     28 O         143.0113  139.2249  168.6271 O.2     1  UNL1       -0.1686
     29 O         141.9941  141.4498  170.3636 O.2     1  UNL1       -0.1686
@<TRIPOS>BOND
     1    26    27    1
     2    27    28    2
     3    27    29    2
     4    27     1    1
     5     1     2   ar
     6     2     3   ar
     7     3     4   ar
     8     4     5   ar
     9     5     6   ar
    10     5     7   ar
    11     7     8   ar
    12     8     9   ar
    13     9    10    1
    14    10    11    1
    15    11    12    1
    16    11    13    1
    17    13    17    1
    18    17    18   ar
    19    18    19   ar
    20    19    20    1
    21    19    21   ar
    22    21    22    1
    23    21    23   ar
    24    23    24   ar
    25    24    25    1
    26    13    14    1
    27     6     1   ar
    28    14     8    1
    29     9     4   ar
    30    24    17   ar
    31    12    15    1
    32    12    16    1
@<TRIPOS>MOLECULE
*****
 29 32 0 0 0
SMALL
GASTEIGER

@<TRIPOS>ATOM
      1 C         140.8598  140.9080  168.7406 C.ar    1  UNL1        0.1073
      2 C         142.0691  141.7917  168.8219 C.ar    1  UNL1        0.0199
      3 C         142.5733  142.4879  167.5927 C.ar    1  UNL1        0.0201
      4 C         141.8682  142.3005  166.2821 C.ar    1  UNL1        0.0787
      5 C         140.6589  141.4168  166.2008 C.ar    1  UNL1        0.0996
      6 C         140.1547  140.7205  167.4300 C.ar    1  UNL1        0.0389
      7 N         140.1748  141.4231  164.7810 N.ar    1  UNL1       -0.2309
      8 C         141.0850  142.3106  163.9849 C.ar    1  UNL1        0.1207
      9 N         142.1315  142.8529  164.9126 N.ar    1  UNL1       -0.3135
     10 C         143.1891  143.7797  164.3906 C.3     1  UNL1        0.1229
     11 C         143.2002  144.1642  162.9407 C.3     1  UNL1        0.0783
     12 N         144.2578  145.0910  162.4186 N.3     1  UNL1       -0.3204
     13 C         142.1537  143.6219  162.0129 C.3     1  UNL1        0.0482
     14 C         141.0960  142.6951  162.5351 C.3     1  UNL1        0.0698
     15 H         144.8808  145.3594  163.1803 H       1  UNL1        0.1189
     16 H         143.8174  145.9248  162.0297 H       1  UNL1        0.1189
     17 C         142.1647  144.0065  160.5631 C.ar    1  UNL1        0.0091
     18 C         143.0581  143.2805  159.6014 C.ar    1  UNL1        0.0300
     19 C         143.0691  143.6650  158.1516 C.ar    1  UNL1        0.1672
     20 F         143.9625  142.9390  157.1899 F       1  UNL1       -0.2018
     21 C         142.1868  144.7755  157.6635 C.ar    1  UNL1        0.1696
     22 F         142.1978  145.1600  156.2136 F       1  UNL1       -0.2017
     23 C         141.2934  145.5015  158.6252 C.ar    1  UNL1        0.0612
     24 C         141.2824  145.1170  160.0750 C.ar    1  UNL1        0.1386
     25 F         140.3890  145.8430  161.0367 F       1  UNL1       -0.2044
     26 C         139.8514  139.5155  171.1991 C.3     1  UNL1        0.1816
     27 S         140.3556  140.2117  169.9698 S.O2    1  UNL1        0.0105
     28 O         139.2419  139.6046  169.1691 O.2     1  UNL1       -0.1686
     29 O         141.4693  140.8189  170.7705 O.2     1  UNL1       -0.1686
@<TRIPOS>BOND
     1    26    27    1
     2    27    28    2
     3    27    29    2
     4    27     1    1
     5     1     2   ar
     6     2     3   ar
     7     3     4   ar
     8     4     5   ar
     9     5     6   ar
    10     5     7   ar
    11     7     8   ar
    12     8     9   ar
    13     9    10    1
    14    10    11    1
    15    11    12    1
    16    11    13    1
    17    13    17    1
    18    17    18   ar
    19    18    19   ar
    20    19    20    1
    21    19    21   ar
    22    21    22    1
    23    21    23   ar
    24    23    24   ar
    25    24    25    1
    26    13    14    1
    27     6     1   ar
    28    14     8    1
    29     9     4   ar
    30    24    17   ar
    31    12    15    1
    32    12    16    1
