@<TRIPOS>MOLECULE
*****
 35 38 0 0 0
SMALL
GASTEIGER

@<TRIPOS>ATOM
      1 C         140.4635  140.0179  165.5103 C.ar    1  UNL1        0.0844
      2 C         139.6644  139.0194  166.2942 C.ar    1  UNL1        0.1147
      3 N         139.2680  139.3208  167.7091 N.ar    1  UNL1       -0.2425
      4 C         139.6708  140.6207  168.3402 C.ar    1  UNL1        0.0827
      5 C         139.2744  140.9220  169.7551 C.ar    1  UNL1        0.0214
      6 C         139.6771  142.2218  170.3862 C.ar    1  UNL1        0.0312
      7 C         140.4763  143.2202  169.6023 C.ar    1  UNL1        0.1403
      8 F         140.8790  144.5201  170.2334 F       1  UNL1       -0.2042
      9 C         140.8727  142.9189  168.1874 C.ar    1  UNL1        0.0324
     10 C         140.4699  141.6191  167.5563 C.ar    1  UNL1        0.0345
     11 C         140.8663  141.3177  166.1413 C.ar    1  UNL1        0.0646
     12 N         140.4184  139.9195  161.5432 N.am    1  UNL1       -0.2667
     13 C         140.0220  140.2209  162.9581 C.2     1  UNL1        0.3083
     14 O         138.7876  141.0267  163.2357 O.2     1  UNL1       -0.2521
     15 N         140.8599  139.7165  164.0953 N.am    1  UNL1       -0.2658
     16 H         141.2285  139.3906  161.3610 H       1  UNL1        0.1565
     17 H         141.6700  139.1876  163.9131 H       1  UNL1        0.1565
     18 C         137.9045  141.4326  158.1313 C.ar    1  UNL1        0.2359
     19 N         137.5772  140.1201  158.7795 N.ar    1  UNL1       -0.2081
     20 C         138.4151  139.6158  159.9168 C.ar    1  UNL1        0.1167
     21 C         139.5804  140.4239  160.4058 C.ar    1  UNL1        0.0720
     22 C         139.9077  141.7363  159.7576 C.ar    1  UNL1        0.0324
     23 C         139.0698  142.2407  158.6203 C.ar    1  UNL1        0.1120
     24 CL        139.3971  143.5532  157.9719 Cl      1  UNL1       -0.0773
     25 C         136.1417  141.0026  156.2718 C.3     1  UNL1        0.2543
     26 O         137.0666  141.9370  156.9939 O.3     1  UNL1       -0.4556
     27 N         141.6654  142.3161  165.3575 N.pl3   1  UNL1       -0.3050
     28 C         143.1617  142.3271  165.4617 C.3     1  UNL1        0.1122
     29 C         140.9682  143.3037  164.4693 C.3     1  UNL1        0.0889
     30 C         139.7178  143.9846  164.9414 C.3     1  UNL1        0.0226
     31 C         139.0205  144.9721  164.0533 C.3     1  UNL1        0.0191
     32 C         139.5737  145.2786  162.6932 C.3     1  UNL1        0.0722
     33 N         140.8241  144.5977  162.2211 N.3     1  UNL1       -0.2701
     34 C         141.3773  144.9043  160.8609 C.3     1  UNL1        0.0897
     35 C         141.5214  143.6102  163.1092 C.3     1  UNL1        0.0920
@<TRIPOS>BOND
     1    25    26    1
     2    26    18    1
     3    18    19   ar
     4    19    20   ar
     5    20    21   ar
     6    21    12    1
     7    12    13   am
     8    13    14    2
     9    13    15   am
    10    15     1    1
    11     1     2   ar
    12     2     3   ar
    13     3     4   ar
    14     4     5   ar
    15     5     6   ar
    16     6     7   ar
    17     7     8    1
    18     7     9   ar
    19     9    10   ar
    20    10    11   ar
    21    11    27    1
    22    27    28    1
    23    27    29    1
    24    29    30    1
    25    30    31    1
    26    31    32    1
    27    32    33    1
    28    33    34    1
    29    33    35    1
    30    21    22   ar
    31    22    23   ar
    32    23    24    1
    33    23    18   ar
    34    11     1   ar
    35    35    29    1
    36    10     4   ar
    37    12    16    1
    38    15    17    1
@<TRIPOS>MOLECULE
*****
 35 38 0 0 0
SMALL
GASTEIGER

@<TRIPOS>ATOM
      1 C         141.8804  139.4423  165.3661 C.ar    1  UNL1        0.0844
      2 C         143.1437  139.4483  166.1747 C.ar    1  UNL1        0.1147
      3 N         143.0808  139.6236  167.6630 N.ar    1  UNL1       -0.2425
      4 C         141.7544  139.7928  168.3429 C.ar    1  UNL1        0.0827
      5 C         141.6914  139.9681  169.8312 C.ar    1  UNL1        0.0214
      6 C         140.3651  140.1373  170.5110 C.ar    1  UNL1        0.0312
      7 C         139.1017  140.1313  169.7024 C.ar    1  UNL1        0.1403
      8 F         137.7753  140.3005  170.3822 F       1  UNL1       -0.2042
      9 C         139.1647  139.9560  168.2140 C.ar    1  UNL1        0.0324
     10 C         140.4910  139.7868  167.5343 C.ar    1  UNL1        0.0345
     11 C         140.5540  139.6115  166.0458 C.ar    1  UNL1        0.0646
     12 N         142.1193  140.2921  161.4969 N.am    1  UNL1       -0.2667
     13 C         142.0563  140.4674  162.9852 C.2     1  UNL1        0.3083
     14 O         142.1062  141.8430  163.5812 O.2     1  UNL1       -0.2521
     15 N         141.9434  139.2671  163.8776 N.am    1  UNL1       -0.2658
     16 H         142.0865  139.3892  161.1057 H       1  UNL1        0.1565
     17 H         141.9106  138.3642  163.4864 H       1  UNL1        0.1565
     18 C         142.4581  143.8930  158.8195 C.ar    1  UNL1        0.2359
     19 N         143.6517  143.0140  159.0488 N.ar    1  UNL1       -0.2081
     20 C         143.5387  141.8137  159.9413 C.ar    1  UNL1        0.1167
     21 C         142.2322  141.4925  160.6044 C.ar    1  UNL1        0.0720
     22 C         141.0386  142.3715  160.3750 C.ar    1  UNL1        0.0324
     23 C         141.1515  143.5717  159.4826 C.ar    1  UNL1        0.1120
     24 CL        139.9579  144.4508  159.2532 Cl      1  UNL1       -0.0773
     25 C         142.2050  144.9864  156.4763 C.3     1  UNL1        0.2543
     26 O         142.5710  145.0934  157.9270 O.3     1  UNL1       -0.4556
     27 N         139.2906  139.6055  165.2372 N.pl3   1  UNL1       -0.3050
     28 C         138.5076  138.3360  165.0788 C.3     1  UNL1        0.1122
     29 C         138.8103  140.8691  164.5871 C.3     1  UNL1        0.0889
     30 C         138.1111  140.8115  163.2612 C.3     1  UNL1        0.0226
     31 C         137.6307  142.0750  162.6111 C.3     1  UNL1        0.0191
     32 C         137.8496  143.3962  163.2867 C.3     1  UNL1        0.0722
     33 N         138.5488  143.4538  164.6126 N.3     1  UNL1       -0.2701
     34 C         138.7676  144.7751  165.2882 C.3     1  UNL1        0.0897
     35 C         139.0291  142.1903  165.2627 C.3     1  UNL1        0.0920
@<TRIPOS>BOND
     1    25    26    1
     2    26    18    1
     3    18    19   ar
     4    19    20   ar
     5    20    21   ar
     6    21    12    1
     7    12    13   am
     8    13    14    2
     9    13    15   am
    10    15     1    1
    11     1     2   ar
    12     2     3   ar
    13     3     4   ar
    14     4     5   ar
    15     5     6   ar
    16     6     7   ar
    17     7     8    1
    18     7     9   ar
    19     9    10   ar
    20    10    11   ar
    21    11    27    1
    22    27    28    1
    23    27    29    1
    24    29    30    1
    25    30    31    1
    26    31    32    1
    27    32    33    1
    28    33    34    1
    29    33    35    1
    30    21    22   ar
    31    22    23   ar
    32    23    24    1
    33    23    18   ar
    34    11     1   ar
    35    35    29    1
    36    10     4   ar
    37    12    16    1
    38    15    17    1
@<TRIPOS>MOLECULE
*****
 35 38 0 0 0
SMALL
GASTEIGER

@<TRIPOS>ATOM
      1 C         141.3450  138.6539  165.6471 C.ar    1  UNL1        0.0844
      2 C         142.7774  138.5028  166.0659 C.ar    1  UNL1        0.1147
      3 N         143.2834  139.2225  167.2808 N.ar    1  UNL1       -0.2425
      4 C         142.3570  140.0932  168.0770 C.ar    1  UNL1        0.0827
      5 C         142.8631  140.8128  169.2919 C.ar    1  UNL1        0.0214
      6 C         141.9367  141.6834  170.0879 C.ar    1  UNL1        0.0312
      7 C         140.5043  141.8345  169.6691 C.ar    1  UNL1        0.1403
      8 F         139.5779  142.7052  170.4652 F       1  UNL1       -0.2042
      9 C         139.9983  141.1148  168.4542 C.ar    1  UNL1        0.0324
     10 C         140.9246  140.2442  167.6581 C.ar    1  UNL1        0.0345
     11 C         140.4186  139.5245  166.4432 C.ar    1  UNL1        0.0646
     12 N         140.3451  137.8973  161.8818 N.am    1  UNL1       -0.2667
     13 C         140.8511  138.6170  163.0966 C.2     1  UNL1        0.3083
     14 O         141.3693  140.0194  162.9760 O.2     1  UNL1       -0.2521
     15 N         140.8390  137.9342  164.4321 N.am    1  UNL1       -0.2658
     16 H         140.0050  136.9768  161.9609 H       1  UNL1        0.1565
     17 H         140.4989  137.0137  164.5113 H       1  UNL1        0.1565
     18 C         140.3817  139.9455  157.8751 C.ar    1  UNL1        0.2359
     19 N         141.6137  139.2495  158.3729 N.ar    1  UNL1       -0.2081
     20 C         141.6015  138.5668  159.7084 C.ar    1  UNL1        0.1167
     21 C         140.3573  138.5801  160.5462 C.ar    1  UNL1        0.0720
     22 C         139.1253  139.2760  160.0484 C.ar    1  UNL1        0.0324
     23 C         139.1375  139.9588  158.7129 C.ar    1  UNL1        0.1120
     24 CL        137.9055  140.6548  158.2151 Cl      1  UNL1       -0.0773
     25 C         140.8174  142.0635  156.4347 C.3     1  UNL1        0.2543
     26 O         140.3938  140.6283  156.5395 O.3     1  UNL1       -0.4556
     27 N         138.9862  139.6755  166.0243 N.pl3   1  UNL1       -0.3050
     28 C         137.9376  138.7693  166.5979 C.3     1  UNL1        0.1122
     29 C         138.6025  140.7329  165.0319 C.3     1  UNL1        0.0889
     30 C         137.8102  140.3648  163.8125 C.3     1  UNL1        0.0226
     31 C         137.4265  141.4220  162.8201 C.3     1  UNL1        0.0191
     32 C         137.8350  142.8474  163.0471 C.3     1  UNL1        0.0722
     33 N         138.6272  143.2154  164.2665 N.3     1  UNL1       -0.2701
     34 C         139.0358  144.6408  164.4934 C.3     1  UNL1        0.0897
     35 C         139.0110  142.1582  165.2589 C.3     1  UNL1        0.0920
@<TRIPOS>BOND
     1    25    26    1
     2    26    18    1
     3    18    19   ar
     4    19    20   ar
     5    20    21   ar
     6    21    12    1
     7    12    13   am
     8    13    14    2
     9    13    15   am
    10    15     1    1
    11     1     2   ar
    12     2     3   ar
    13     3     4   ar
    14     4     5   ar
    15     5     6   ar
    16     6     7   ar
    17     7     8    1
    18     7     9   ar
    19     9    10   ar
    20    10    11   ar
    21    11    27    1
    22    27    28    1
    23    27    29    1
    24    29    30    1
    25    30    31    1
    26    31    32    1
    27    32    33    1
    28    33    34    1
    29    33    35    1
    30    21    22   ar
    31    22    23   ar
    32    23    24    1
    33    23    18   ar
    34    11     1   ar
    35    35    29    1
    36    10     4   ar
    37    12    16    1
    38    15    17    1
@<TRIPOS>MOLECULE
*****
 35 38 0 0 0
SMALL
GASTEIGER

@<TRIPOS>ATOM
      1 C         141.5623  139.2321  165.5766 C.ar    1  UNL1        0.0844
      2 C         142.8162  138.7414  166.2375 C.ar    1  UNL1        0.1147
      3 N         143.1182  139.1293  167.6547 N.ar    1  UNL1       -0.2425
      4 C         142.1662  140.0081  168.4109 C.ar    1  UNL1        0.0827
      5 C         142.4683  140.3960  169.8280 C.ar    1  UNL1        0.0214
      6 C         141.5163  141.2747  170.5841 C.ar    1  UNL1        0.0312
      7 C         140.2624  141.7654  169.9231 C.ar    1  UNL1        0.1403
      8 F         139.3105  142.6441  170.6793 F       1  UNL1       -0.2042
      9 C         139.9604  141.3774  168.5060 C.ar    1  UNL1        0.0324
     10 C         140.9123  140.4988  167.7499 C.ar    1  UNL1        0.0345
     11 C         140.6104  140.1108  166.3327 C.ar    1  UNL1        0.0646
     12 N         141.6562  139.1493  161.6099 N.am    1  UNL1       -0.2667
     13 C         141.9582  139.5373  163.0270 C.2     1  UNL1        0.3083
     14 O         142.9582  140.6186  163.3118 O.2     1  UNL1       -0.2521
     15 N         141.2603  138.8441  164.1594 N.am    1  UNL1       -0.2658
     16 H         140.9999  138.4397  161.4231 H       1  UNL1        0.1565
     17 H         140.6040  138.1345  163.9725 H       1  UNL1        0.1565
     18 C         143.7501  141.2289  158.2127 C.ar    1  UNL1        0.2359
     19 N         144.1382  139.8297  158.5888 N.ar    1  UNL1       -0.2081
     20 C         143.4403  139.1365  159.7212 C.ar    1  UNL1        0.1167
     21 C         142.3542  139.8426  160.4775 C.ar    1  UNL1        0.0720
     22 C         141.9660  141.2418  160.1013 C.ar    1  UNL1        0.0324
     23 C         142.6640  141.9349  158.9689 C.ar    1  UNL1        0.1120
     24 CL        142.2758  143.3342  158.5927 Cl      1  UNL1       -0.0773
     25 C         145.9110  142.2374  157.1815 C.3     1  UNL1        0.2543
     26 O         144.4480  141.9221  157.0802 O.3     1  UNL1       -0.4556
     27 N         139.3564  140.6015  165.6717 N.pl3   1  UNL1       -0.3050
     28 C         138.1370  139.7288  165.6351 C.3     1  UNL1        0.1122
     29 C         139.3220  141.9650  165.0473 C.3     1  UNL1        0.0889
     30 C         138.0105  142.5751  164.6501 C.3     1  UNL1        0.0226
     31 C         137.9760  143.9384  164.0257 C.3     1  UNL1        0.0191
     32 C         139.2530  144.6918  163.7985 C.3     1  UNL1        0.0722
     33 N         140.5645  144.0817  164.1956 N.3     1  UNL1       -0.2701
     34 C         141.8416  144.8351  163.9684 C.3     1  UNL1        0.0897
     35 C         140.5990  142.7183  164.8200 C.3     1  UNL1        0.0920
@<TRIPOS>BOND
     1    25    26    1
     2    26    18    1
     3    18    19   ar
     4    19    20   ar
     5    20    21   ar
     6    21    12    1
     7    12    13   am
     8    13    14    2
     9    13    15   am
    10    15     1    1
    11     1     2   ar
    12     2     3   ar
    13     3     4   ar
    14     4     5   ar
    15     5     6   ar
    16     6     7   ar
    17     7     8    1
    18     7     9   ar
    19     9    10   ar
    20    10    11   ar
    21    11    27    1
    22    27    28    1
    23    27    29    1
    24    29    30    1
    25    30    31    1
    26    31    32    1
    27    32    33    1
    28    33    34    1
    29    33    35    1
    30    21    22   ar
    31    22    23   ar
    32    23    24    1
    33    23    18   ar
    34    11     1   ar
    35    35    29    1
    36    10     4   ar
    37    12    16    1
    38    15    17    1
@<TRIPOS>MOLECULE
*****
 35 38 0 0 0
SMALL
GASTEIGER

@<TRIPOS>ATOM
      1 C         140.5272  139.4957  166.4289 C.ar    1  UNL1        0.0844
      2 C         139.3248  139.8155  167.2668 C.ar    1  UNL1        0.1147
      3 N         139.4705  140.6654  168.4942 N.ar    1  UNL1       -0.2425
      4 C         140.8186  141.1955  168.8837 C.ar    1  UNL1        0.0827
      5 C         140.9643  142.0454  170.1111 C.ar    1  UNL1        0.0214
      6 C         142.3123  142.5754  170.5005 C.ar    1  UNL1        0.0312
      7 C         143.5147  142.2556  169.6627 C.ar    1  UNL1        0.1403
      8 F         144.8628  142.7857  170.0522 F       1  UNL1       -0.2042
      9 C         143.3690  141.4057  168.4353 C.ar    1  UNL1        0.0324
     10 C         142.0210  140.8757  168.0458 C.ar    1  UNL1        0.0345
     11 C         141.8752  140.0257  166.8184 C.ar    1  UNL1        0.0646
     12 N         139.7572  138.4075  162.6909 N.am    1  UNL1       -0.2667
     13 C         139.9029  139.2574  163.9182 C.2     1  UNL1        0.3083
     14 O         139.5702  140.7190  163.8622 O.2     1  UNL1       -0.2521
     15 N         140.3814  138.6458  165.2015 N.am    1  UNL1       -0.2658
     16 H         139.9756  137.4482  162.7277 H       1  UNL1        0.1565
     17 H         140.5998  137.6865  165.2383 H       1  UNL1        0.1565
     18 C         138.3217  140.2423  158.8409 C.ar    1  UNL1        0.2359
     19 N         137.3309  139.8086  159.8802 N.ar    1  UNL1       -0.2081
     20 C         137.8094  139.1970  161.1635 C.ar    1  UNL1        0.1167
     21 C         139.2787  139.0191  161.4075 C.ar    1  UNL1        0.0720
     22 C         140.2695  139.4528  160.3682 C.ar    1  UNL1        0.0324
     23 C         139.7910  140.0644  159.0849 C.ar    1  UNL1        0.1120
     24 CL        140.7818  140.4981  158.0455 Cl      1  UNL1       -0.0773
     25 C         137.7075  142.3432  157.4413 C.3     1  UNL1        0.2543
     26 O         137.8432  140.8539  157.5575 O.3     1  UNL1       -0.4556
     27 N         143.0776  139.7059  165.9806 N.pl3   1  UNL1       -0.3050
     28 C         143.7675  138.3827  166.1330 C.3     1  UNL1        0.1122
     29 C         143.5901  140.7093  164.9903 C.3     1  UNL1        0.0889
     30 C         144.9369  140.5187  164.3581 C.3     1  UNL1        0.0226
     31 C         145.4494  141.5220  163.3679 C.3     1  UNL1        0.0191
     32 C         144.6151  142.7160  163.0098 C.3     1  UNL1        0.0722
     33 N         143.2682  142.9066  163.6419 N.3     1  UNL1       -0.2701
     34 C         142.4338  144.1006  163.2838 C.3     1  UNL1        0.0897
     35 C         142.7557  141.9032  164.6322 C.3     1  UNL1        0.0920
@<TRIPOS>BOND
     1    25    26    1
     2    26    18    1
     3    18    19   ar
     4    19    20   ar
     5    20    21   ar
     6    21    12    1
     7    12    13   am
     8    13    14    2
     9    13    15   am
    10    15     1    1
    11     1     2   ar
    12     2     3   ar
    13     3     4   ar
    14     4     5   ar
    15     5     6   ar
    16     6     7   ar
    17     7     8    1
    18     7     9   ar
    19     9    10   ar
    20    10    11   ar
    21    11    27    1
    22    27    28    1
    23    27    29    1
    24    29    30    1
    25    30    31    1
    26    31    32    1
    27    32    33    1
    28    33    34    1
    29    33    35    1
    30    21    22   ar
    31    22    23   ar
    32    23    24    1
    33    23    18   ar
    34    11     1   ar
    35    35    29    1
    36    10     4   ar
    37    12    16    1
    38    15    17    1
@<TRIPOS>MOLECULE
*****
 35 38 0 0 0
SMALL
GASTEIGER

@<TRIPOS>ATOM
      1 C         139.2810  140.8564  164.7413 C.ar    1  UNL1        0.0844
      2 C         138.9186  139.5498  165.3828 C.ar    1  UNL1        0.1147
      3 N         139.1264  139.3542  166.8554 N.ar    1  UNL1       -0.2425
      4 C         139.6966  140.4651  167.6865 C.ar    1  UNL1        0.0827
      5 C         139.9043  140.2695  169.1591 C.ar    1  UNL1        0.0214
      6 C         140.4745  141.3804  169.9901 C.ar    1  UNL1        0.0312
      7 C         140.8369  142.6870  169.3486 C.ar    1  UNL1        0.1403
      8 F         141.4071  143.7980  170.1797 F       1  UNL1       -0.2042
      9 C         140.6292  142.8826  167.8760 C.ar    1  UNL1        0.0324
     10 C         140.0590  141.7717  167.0450 C.ar    1  UNL1        0.0345
     11 C         139.8512  141.9673  165.5723 C.ar    1  UNL1        0.0646
     12 N         139.8137  140.6238  160.8155 N.am    1  UNL1       -0.2667
     13 C         140.0216  140.4282  162.2880 C.2     1  UNL1        0.3083
     14 O         141.1777  139.6088  162.7800 O.2     1  UNL1       -0.2521
     15 N         139.0733  141.0520  163.2686 N.am    1  UNL1       -0.2658
     16 H         139.0550  141.1616  160.4926 H       1  UNL1        0.1565
     17 H         138.3145  141.5897  162.9457 H       1  UNL1        0.1565
     18 C         142.6585  138.7525  157.8735 C.ar    1  UNL1        0.2359
     19 N         141.3598  138.0748  158.1958 N.ar    1  UNL1       -0.2081
     20 C         140.4115  138.6986  159.1764 C.ar    1  UNL1        0.1167
     21 C         140.7621  140.0000  159.8348 C.ar    1  UNL1        0.0720
     22 C         142.0609  140.6777  159.5125 C.ar    1  UNL1        0.0324
     23 C         143.0091  140.0539  158.5319 C.ar    1  UNL1        0.1120
     24 CL        144.3080  140.7315  158.2095 Cl      1  UNL1       -0.0773
     25 C         143.3191  136.7669  156.3336 C.3     1  UNL1        0.2543
     26 O         143.6069  138.1287  156.8928 O.3     1  UNL1       -0.4556
     27 N         140.2136  143.2739  164.9308 N.pl3   1  UNL1       -0.3050
     28 C         139.1846  144.3577  164.8033 C.3     1  UNL1        0.1122
     29 C         141.6052  143.4965  164.4167 C.3     1  UNL1        0.0889
     30 C         142.0000  144.8400  163.8791 C.3     1  UNL1        0.0226
     31 C         143.3915  145.0627  163.3650 C.3     1  UNL1        0.0191
     32 C         144.3880  143.9419  163.3887 C.3     1  UNL1        0.0722
     33 N         143.9931  142.5984  163.9263 N.3     1  UNL1       -0.2701
     34 C         144.9898  141.4775  163.9499 C.3     1  UNL1        0.0897
     35 C         142.6017  142.3757  164.4404 C.3     1  UNL1        0.0920
@<TRIPOS>BOND
     1    25    26    1
     2    26    18    1
     3    18    19   ar
     4    19    20   ar
     5    20    21   ar
     6    21    12    1
     7    12    13   am
     8    13    14    2
     9    13    15   am
    10    15     1    1
    11     1     2   ar
    12     2     3   ar
    13     3     4   ar
    14     4     5   ar
    15     5     6   ar
    16     6     7   ar
    17     7     8    1
    18     7     9   ar
    19     9    10   ar
    20    10    11   ar
    21    11    27    1
    22    27    28    1
    23    27    29    1
    24    29    30    1
    25    30    31    1
    26    31    32    1
    27    32    33    1
    28    33    34    1
    29    33    35    1
    30    21    22   ar
    31    22    23   ar
    32    23    24    1
    33    23    18   ar
    34    11     1   ar
    35    35    29    1
    36    10     4   ar
    37    12    16    1
    38    15    17    1
@<TRIPOS>MOLECULE
*****
 35 38 0 0 0
SMALL
GASTEIGER

@<TRIPOS>ATOM
      1 C         143.1648  140.2253  164.8285 C.ar    1  UNL1        0.0844
      2 C         143.0304  138.8505  165.4133 C.ar    1  UNL1        0.1147
      3 N         142.8173  138.6804  166.8883 N.ar    1  UNL1       -0.2425
      4 C         142.7384  139.8852  167.7785 C.ar    1  UNL1        0.0827
      5 C         142.5252  139.7151  169.2535 C.ar    1  UNL1        0.0214
      6 C         142.4464  140.9198  170.1437 C.ar    1  UNL1        0.0312
      7 C         142.5808  142.2946  169.5589 C.ar    1  UNL1        0.1403
      8 F         142.5020  143.4993  170.4492 F       1  UNL1       -0.2042
      9 C         142.7940  142.4646  168.0839 C.ar    1  UNL1        0.0324
     10 C         142.8728  141.2599  167.1937 C.ar    1  UNL1        0.0345
     11 C         143.0860  141.4300  165.7187 C.ar    1  UNL1        0.0646
     12 N         142.4327  140.4408  160.9340 N.am    1  UNL1       -0.2667
     13 C         142.2194  140.2708  162.4089 C.2     1  UNL1        0.3083
     14 O         140.8476  139.9763  162.9394 O.2     1  UNL1       -0.2521
     15 N         143.3780  140.3953  163.3535 N.am    1  UNL1       -0.2658
     16 H         143.3331  140.6342  160.5858 H       1  UNL1        0.1565
     17 H         144.2784  140.5886  163.0053 H       1  UNL1        0.1565
     18 C         138.9569  140.0674  158.1003 C.ar    1  UNL1        0.2359
     19 N         139.1305  141.3156  158.9139 N.ar    1  UNL1       -0.2081
     20 C         140.2891  141.4400  159.8584 C.ar    1  UNL1        0.1167
     21 C         141.2741  140.3163  159.9894 C.ar    1  UNL1        0.0720
     22 C         141.1005  139.0682  159.1758 C.ar    1  UNL1        0.0324
     23 C         139.9419  138.9437  158.2313 C.ar    1  UNL1        0.1120
     24 CL        139.7683  137.6955  157.4176 Cl      1  UNL1       -0.0773
     25 C         136.9243  141.1305  156.8802 C.3     1  UNL1        0.2543
     26 O         137.7983  139.9429  157.1557 O.3     1  UNL1       -0.4556
     27 N         143.2204  142.8047  165.1339 N.pl3   1  UNL1       -0.3050
     28 C         144.5566  143.4861  165.1189 C.3     1  UNL1        0.1122
     29 C         142.0184  143.4982  164.5641 C.3     1  UNL1        0.0889
     30 C         142.1911  144.7248  163.7183 C.3     1  UNL1        0.0226
     31 C         140.9893  145.4183  163.1485 C.3     1  UNL1        0.0191
     32 C         139.6147  144.8850  163.4246 C.3     1  UNL1        0.0722
     33 N         139.4420  143.6583  164.2704 N.3     1  UNL1       -0.2701
     34 C         138.0674  143.1251  164.5465 C.3     1  UNL1        0.0897
     35 C         140.6439  142.9649  164.8402 C.3     1  UNL1        0.0920
@<TRIPOS>BOND
     1    25    26    1
     2    26    18    1
     3    18    19   ar
     4    19    20   ar
     5    20    21   ar
     6    21    12    1
     7    12    13   am
     8    13    14    2
     9    13    15   am
    10    15     1    1
    11     1     2   ar
    12     2     3   ar
    13     3     4   ar
    14     4     5   ar
    15     5     6   ar
    16     6     7   ar
    17     7     8    1
    18     7     9   ar
    19     9    10   ar
    20    10    11   ar
    21    11    27    1
    22    27    28    1
    23    27    29    1
    24    29    30    1
    25    30    31    1
    26    31    32    1
    27    32    33    1
    28    33    34    1
    29    33    35    1
    30    21    22   ar
    31    22    23   ar
    32    23    24    1
    33    23    18   ar
    34    11     1   ar
    35    35    29    1
    36    10     4   ar
    37    12    16    1
    38    15    17    1
@<TRIPOS>MOLECULE
*****
 35 38 0 0 0
SMALL
GASTEIGER

@<TRIPOS>ATOM
      1 C         142.5104  141.1638  165.5601 C.ar    1  UNL1        0.0844
      2 C         143.3872  142.0360  166.4089 C.ar    1  UNL1        0.1147
      3 N         143.0073  142.3237  167.8311 N.ar    1  UNL1       -0.2425
      4 C         141.7504  141.7393  168.4046 C.ar    1  UNL1        0.0827
      5 C         141.3705  142.0270  169.8268 C.ar    1  UNL1        0.0214
      6 C         140.1137  141.4426  170.4003 C.ar    1  UNL1        0.0312
      7 C         139.2369  140.5704  169.5515 C.ar    1  UNL1        0.1403
      8 F         137.9801  139.9859  170.1250 F       1  UNL1       -0.2042
      9 C         139.6168  140.2826  168.1293 C.ar    1  UNL1        0.0324
     10 C         140.8736  140.8671  167.5558 C.ar    1  UNL1        0.0345
     11 C         141.2536  140.5793  166.1335 C.ar    1  UNL1        0.0646
     12 N         142.7281  141.4410  161.6072 N.am    1  UNL1       -0.2667
     13 C         142.3481  141.7288  163.0294 C.2     1  UNL1        0.3083
     14 O         141.4258  142.8694  163.3432 O.2     1  UNL1       -0.2521
     15 N         142.8904  140.8760  164.1378 N.am    1  UNL1       -0.2658
     16 H         143.3335  140.6925  161.4012 H       1  UNL1        0.1565
     17 H         143.4958  140.1274  163.9318 H       1  UNL1        0.1565
     18 C         141.1014  143.9994  158.2818 C.ar    1  UNL1        0.2359
     19 N         142.5161  144.1826  158.7455 N.ar    1  UNL1       -0.2081
     20 C         143.0583  143.3298  159.8539 C.ar    1  UNL1        0.1167
     21 C         142.1858  142.2939  160.4987 C.ar    1  UNL1        0.0720
     22 C         140.7712  142.1107  160.0349 C.ar    1  UNL1        0.0324
     23 C         140.2289  142.9635  158.9265 C.ar    1  UNL1        0.1120
     24 CL        138.8142  142.7804  158.4627 Cl      1  UNL1       -0.0773
     25 C         140.1204  146.2587  157.4550 C.3     1  UNL1        0.2543
     26 O         140.5591  144.8522  157.1733 O.3     1  UNL1       -0.4556
     27 N         140.3768  139.7071  165.2847 N.pl3   1  UNL1       -0.3050
     28 C         140.5327  138.2160  165.3306 C.3     1  UNL1        0.1122
     29 C         139.3441  140.3261  164.3900 C.3     1  UNL1        0.0889
     30 C         138.6210  141.5662  164.8252 C.3     1  UNL1        0.0226
     31 C         137.5884  142.1852  163.9306 C.3     1  UNL1        0.0191
     32 C         137.2788  141.5642  162.6008 C.3     1  UNL1        0.0722
     33 N         138.0018  140.3241  162.1657 N.3     1  UNL1       -0.2701
     34 C         137.6922  139.7030  160.8358 C.3     1  UNL1        0.0897
     35 C         139.0345  139.7051  163.0603 C.3     1  UNL1        0.0920
@<TRIPOS>BOND
     1    25    26    1
     2    26    18    1
     3    18    19   ar
     4    19    20   ar
     5    20    21   ar
     6    21    12    1
     7    12    13   am
     8    13    14    2
     9    13    15   am
    10    15     1    1
    11     1     2   ar
    12     2     3   ar
    13     3     4   ar
    14     4     5   ar
    15     5     6   ar
    16     6     7   ar
    17     7     8    1
    18     7     9   ar
    19     9    10   ar
    20    10    11   ar
    21    11    27    1
    22    27    28    1
    23    27    29    1
    24    29    30    1
    25    30    31    1
    26    31    32    1
    27    32    33    1
    28    33    34    1
    29    33    35    1
    30    21    22   ar
    31    22    23   ar
    32    23    24    1
    33    23    18   ar
    34    11     1   ar
    35    35    29    1
    36    10     4   ar
    37    12    16    1
    38    15    17    1
@<TRIPOS>MOLECULE
*****
 35 38 0 0 0
SMALL
GASTEIGER

@<TRIPOS>ATOM
      1 C         141.9486  140.0797  163.4292 C.ar    1  UNL1        0.0844
      2 C         141.9712  138.6596  163.9117 C.ar    1  UNL1        0.1147
      3 N         142.2113  138.3641  165.3626 N.ar    1  UNL1       -0.2425
      4 C         142.4289  139.4889  166.3310 C.ar    1  UNL1        0.0827
      5 C         142.6690  139.1934  167.7819 C.ar    1  UNL1        0.0214
      6 C         142.8866  140.3181  168.7502 C.ar    1  UNL1        0.0312
      7 C         142.8640  141.7382  168.2677 C.ar    1  UNL1        0.1403
      8 F         143.0816  142.8629  169.2361 F       1  UNL1       -0.2042
      9 C         142.6239  142.0336  166.8169 C.ar    1  UNL1        0.0324
     10 C         142.4063  140.9089  165.8485 C.ar    1  UNL1        0.0345
     11 C         142.1661  141.2043  164.3976 C.ar    1  UNL1        0.0646
     12 N         142.6251  140.9753  159.6227 N.am    1  UNL1       -0.2667
     13 C         142.8653  140.6799  161.0735 C.2     1  UNL1        0.3083
     14 O         144.2623  140.6895  161.6196 O.2     1  UNL1       -0.2521
     15 N         141.7084  140.3751  161.9783 N.am    1  UNL1       -0.2658
     16 H         141.7082  140.9691  159.2643 H       1  UNL1        0.1565
     17 H         140.7915  140.3688  161.6199 H       1  UNL1        0.1565
     18 C         146.0957  141.8901  156.9082 C.ar    1  UNL1        0.2359
     19 N         145.8045  142.7808  158.0794 N.ar    1  UNL1       -0.2081
     20 C         144.6477  142.4759  158.9842 C.ar    1  UNL1        0.1167
     21 C         143.7820  141.2802  158.7178 C.ar    1  UNL1        0.0720
     22 C         144.0731  140.3895  157.5466 C.ar    1  UNL1        0.0324
     23 C         145.2300  140.6944  156.6418 C.ar    1  UNL1        0.1120
     24 CL        145.5211  139.8037  155.4705 Cl      1  UNL1       -0.0773
     25 C         147.0593  143.0884  154.8140 C.3     1  UNL1        0.2543
     26 O         147.2525  142.1950  156.0033 O.3     1  UNL1       -0.4556
     27 N         142.1436  142.6244  163.9151 N.pl3   1  UNL1       -0.3050
     28 C         143.4305  143.3664  163.7069 C.3     1  UNL1        0.1122
     29 C         140.8340  143.3026  163.6407 C.3     1  UNL1        0.0889
     30 C         139.5745  142.7834  164.2685 C.3     1  UNL1        0.0226
     31 C         138.2650  143.4615  163.9942 C.3     1  UNL1        0.0191
     32 C         138.2150  144.6588  163.0921 C.3     1  UNL1        0.0722
     33 N         139.4744  145.1780  162.4643 N.3     1  UNL1       -0.2701
     34 C         139.4243  146.3754  161.5621 C.3     1  UNL1        0.0897
     35 C         140.7839  144.4999  162.7386 C.3     1  UNL1        0.0920
@<TRIPOS>BOND
     1    25    26    1
     2    26    18    1
     3    18    19   ar
     4    19    20   ar
     5    20    21   ar
     6    21    12    1
     7    12    13   am
     8    13    14    2
     9    13    15   am
    10    15     1    1
    11     1     2   ar
    12     2     3   ar
    13     3     4   ar
    14     4     5   ar
    15     5     6   ar
    16     6     7   ar
    17     7     8    1
    18     7     9   ar
    19     9    10   ar
    20    10    11   ar
    21    11    27    1
    22    27    28    1
    23    27    29    1
    24    29    30    1
    25    30    31    1
    26    31    32    1
    27    32    33    1
    28    33    34    1
    29    33    35    1
    30    21    22   ar
    31    22    23   ar
    32    23    24    1
    33    23    18   ar
    34    11     1   ar
    35    35    29    1
    36    10     4   ar
    37    12    16    1
    38    15    17    1
