@<TRIPOS>MOLECULE
*****
 35 38 0 0 0
SMALL
GASTEIGER

@<TRIPOS>ATOM
      1 C         139.0580  140.0953  161.7086 C.ar    1  UNL1        0.0539
      2 C         138.3156  141.3210  161.2656 C.ar    1  UNL1        0.0076
      3 C         137.7985  142.2936  162.2838 C.ar    1  UNL1        0.0370
      4 C         138.0238  142.0404  163.7450 C.ar    1  UNL1        0.1386
      5 C         138.7662  140.8146  164.1880 C.ar    1  UNL1        0.0371
      6 C         139.2833  139.8421  163.1698 C.ar    1  UNL1        0.0076
      7 C         138.9915  140.5614  165.6492 C.ar    1  UNL1        0.0413
      8 C         138.2692  139.4407  166.3363 C.ar    1  UNL1        0.1023
      9 N         138.4945  139.1875  167.7975 N.ar    1  UNL1       -0.2224
     10 C         139.4422  140.0550  168.5716 C.ar    1  UNL1        0.1989
     11 N         140.1645  141.1757  167.8845 N.ar    1  UNL1       -0.2224
     12 C         139.9392  141.4289  166.4233 C.ar    1  UNL1        0.1023
     13 O         139.4596  137.6475  160.9360 O.2     1  UNL1       -0.2698
     14 C         139.5752  139.1227  160.6904 C.2     1  UNL1        0.2495
     15 N         140.2079  139.6253  159.4267 N.am    1  UNL1       -0.2804
     16 H         140.2837  140.5936  159.2656 H       1  UNL1        0.1552
     17 C         140.7250  138.6527  158.4085 C.ar    1  UNL1        0.0507
     18 C         142.1626  138.2261  158.4413 C.ar    1  UNL1        0.0178
     19 C         142.6797  137.2535  157.4232 C.ar    1  UNL1        0.0385
     20 C         141.7592  136.7076  156.3722 C.ar    1  UNL1        0.1469
     21 C         140.3215  137.1342  156.3394 C.ar    1  UNL1        0.0385
     22 C         139.8044  138.1068  157.3576 C.ar    1  UNL1        0.0178
     23 O         142.2763  135.7350  155.3540 O.3     1  UNL1       -0.4045
     24 C         143.2635  134.6803  155.7579 C.3     1  UNL1        0.5753
     25 F         144.2507  133.6256  156.1619 F       1  UNL1       -0.1328
     26 F         142.1459  133.8454  156.3093 F       1  UNL1       -0.1328
     27 F         144.3810  135.5152  155.2066 F       1  UNL1       -0.1328
     28 O         137.5067  143.0130  164.7632 O.3     1  UNL1       -0.4740
     29 C         137.9757  144.4376  164.7455 C.3     1  UNL1        0.2226
     30 C         139.4358  144.7446  164.5912 C.3     1  UNL1        0.1200
     31 N         140.0494  144.8037  163.2237 N.3     1  UNL1       -0.2696
     32 C         141.1219  143.8961  162.6986 C.3     1  UNL1        0.0722
     33 C         141.4335  144.3123  161.2916 C.3     1  UNL1        0.0188
     34 C         140.5536  145.4773  160.9471 C.3     1  UNL1        0.0188
     35 C         139.6982  145.7810  162.1413 C.3     1  UNL1        0.0722
@<TRIPOS>BOND
     1    13    14    2
     2    14    15   am
     3    15    17    1
     4    17    18   ar
     5    18    19   ar
     6    19    20   ar
     7    20    23    1
     8    23    24    1
     9    24    25    1
    10    24    26    1
    11    24    27    1
    12    20    21   ar
    13    21    22   ar
    14    14     1    1
    15     1     2   ar
    16     2     3   ar
    17     3     4   ar
    18     4    28    1
    19    28    29    1
    20    29    30    1
    21    30    31    1
    22    31    32    1
    23    32    33    1
    24    33    34    1
    25    34    35    1
    26     4     5   ar
    27     5     7    1
    28     7     8   ar
    29     8     9   ar
    30     9    10   ar
    31    10    11   ar
    32    11    12   ar
    33     5     6   ar
    34    22    17   ar
    35     6     1   ar
    36    35    31    1
    37    12     7   ar
    38    15    16    1
@<TRIPOS>MOLECULE
*****
 35 38 0 0 0
SMALL
GASTEIGER

@<TRIPOS>ATOM
      1 C         143.4977  140.2727  165.1896 C.ar    1  UNL1        0.0539
      2 C         143.6509  138.8603  165.6708 C.ar    1  UNL1        0.0076
      3 C         143.2462  138.4960  167.0684 C.ar    1  UNL1        0.0370
      4 C         142.6883  139.5442  167.9849 C.ar    1  UNL1        0.1386
      5 C         142.5351  140.9567  167.5038 C.ar    1  UNL1        0.0371
      6 C         142.9398  141.3209  166.1062 C.ar    1  UNL1        0.0076
      7 C         141.9772  142.0048  168.4204 C.ar    1  UNL1        0.0413
      8 C         142.7752  142.4692  169.6025 C.ar    1  UNL1        0.1023
      9 N         142.2172  143.5173  170.5191 N.ar    1  UNL1       -0.2224
     10 C         140.8614  144.1012  170.2534 C.ar    1  UNL1        0.1989
     11 N         140.0634  143.6369  169.0713 N.ar    1  UNL1       -0.2224
     12 C         140.6213  142.5887  168.1547 C.ar    1  UNL1        0.1023
     13 O         145.3477  140.8727  163.4670 O.2     1  UNL1       -0.2698
     14 C         143.9024  140.6370  163.7919 C.2     1  UNL1        0.2495
     15 N         142.8619  140.7656  162.7192 N.am    1  UNL1       -0.2804
     16 H         141.9133  140.6109  162.9325 H       1  UNL1        0.1552
     17 C         143.2666  141.1299  161.3215 C.ar    1  UNL1        0.0507
     18 C         143.2488  142.5650  160.8855 C.ar    1  UNL1        0.0178
     19 C         143.6535  142.9292  159.4878 C.ar    1  UNL1        0.0385
     20 C         144.0760  141.8584  158.5262 C.ar    1  UNL1        0.1469
     21 C         144.0939  140.4233  158.9622 C.ar    1  UNL1        0.0385
     22 C         143.6892  140.0591  160.3599 C.ar    1  UNL1        0.0178
     23 O         144.4807  142.2227  157.1285 O.3     1  UNL1       -0.4045
     24 C         145.9053  142.0512  156.6913 C.3     1  UNL1        0.5753
     25 F         147.3300  141.8797  156.2542 F       1  UNL1       -0.1328
     26 F         146.3724  142.7110  157.9548 F       1  UNL1       -0.1328
     27 F         145.4382  141.3913  155.4279 F       1  UNL1       -0.1328
     28 O         142.2836  139.1799  169.3827 O.3     1  UNL1       -0.4740
     29 C         143.2956  138.6107  170.3322 C.3     1  UNL1        0.2226
     30 C         143.5564  137.1337  170.3535 C.3     1  UNL1        0.1200
     31 N         144.5706  136.5647  171.3011 N.3     1  UNL1       -0.2696
     32 C         144.7345  135.1154  171.6510 C.3     1  UNL1        0.0722
     33 C         145.8641  135.0001  172.6312 C.3     1  UNL1        0.0188
     34 C         146.3983  136.3783  172.8871 C.3     1  UNL1        0.0188
     35 C         145.5988  137.3452  172.0649 C.3     1  UNL1        0.0722
@<TRIPOS>BOND
     1    13    14    2
     2    14    15   am
     3    15    17    1
     4    17    18   ar
     5    18    19   ar
     6    19    20   ar
     7    20    23    1
     8    23    24    1
     9    24    25    1
    10    24    26    1
    11    24    27    1
    12    20    21   ar
    13    21    22   ar
    14    14     1    1
    15     1     2   ar
    16     2     3   ar
    17     3     4   ar
    18     4    28    1
    19    28    29    1
    20    29    30    1
    21    30    31    1
    22    31    32    1
    23    32    33    1
    24    33    34    1
    25    34    35    1
    26     4     5   ar
    27     5     7    1
    28     7     8   ar
    29     8     9   ar
    30     9    10   ar
    31    10    11   ar
    32    11    12   ar
    33     5     6   ar
    34    22    17   ar
    35     6     1   ar
    36    35    31    1
    37    12     7   ar
    38    15    16    1
@<TRIPOS>MOLECULE
*****
 35 38 0 0 0
SMALL
GASTEIGER

@<TRIPOS>ATOM
      1 C         141.2591  138.3412  161.3124 C.ar    1  UNL1        0.0539
      2 C         142.5737  137.7856  160.8511 C.ar    1  UNL1        0.0076
      3 C         142.9064  137.7625  159.3886 C.ar    1  UNL1        0.0370
      4 C         141.9244  138.2949  158.3876 C.ar    1  UNL1        0.1386
      5 C         140.6097  138.8505  158.8489 C.ar    1  UNL1        0.0371
      6 C         140.2770  138.8737  160.3113 C.ar    1  UNL1        0.0076
      7 C         139.6277  139.3829  157.8478 C.ar    1  UNL1        0.0413
      8 C         139.2064  138.5335  156.6855 C.ar    1  UNL1        0.1023
      9 N         138.2244  139.0660  155.6845 N.ar    1  UNL1       -0.2224
     10 C         137.6637  140.4478  155.8457 C.ar    1  UNL1        0.1989
     11 N         138.0850  141.2972  157.0079 N.ar    1  UNL1       -0.2224
     12 C         139.0670  140.7648  158.0090 C.ar    1  UNL1        0.1023
     13 O         141.2583  137.1836  163.6384 O.2     1  UNL1       -0.2698
     14 C         140.9263  138.3644  162.7749 C.2     1  UNL1        0.2495
     15 N         140.2617  139.5683  163.3739 N.am    1  UNL1       -0.2804
     16 H         140.0438  140.3433  162.8072 H       1  UNL1        0.1552
     17 C         139.9289  139.5914  164.8364 C.ar    1  UNL1        0.0507
     18 C         140.9256  140.1218  165.8240 C.ar    1  UNL1        0.0178
     19 C         140.5928  140.1449  167.2864 C.ar    1  UNL1        0.0385
     20 C         139.2634  139.6377  167.7612 C.ar    1  UNL1        0.1469
     21 C         138.2668  139.1074  166.7736 C.ar    1  UNL1        0.0385
     22 C         138.5995  139.0842  165.3112 C.ar    1  UNL1        0.0178
     23 O         138.9307  139.6609  169.2237 O.3     1  UNL1       -0.4045
     24 C         139.7812  140.4505  170.1740 C.3     1  UNL1        0.5753
     25 F         140.6318  141.2402  171.1243 F       1  UNL1       -0.1328
     26 F         140.6925  139.2706  170.3388 F       1  UNL1       -0.1328
     27 F         138.8699  141.6305  170.0091 F       1  UNL1       -0.1328
     28 O         142.2571  138.2718  156.9251 O.3     1  UNL1       -0.4740
     29 C         142.7414  137.0041  156.2860 C.3     1  UNL1        0.2226
     30 C         141.8527  135.7963  156.2484 C.3     1  UNL1        0.1200
     31 N         142.4392  134.4276  156.4301 N.3     1  UNL1       -0.2696
     32 C         141.9601  133.1684  155.7707 C.3     1  UNL1        0.0722
     33 C         142.8325  132.0405  156.2362 C.3     1  UNL1        0.0188
     34 C         143.8509  132.6027  157.1832 C.3     1  UNL1        0.0188
     35 C         143.6078  134.0780  157.3031 C.3     1  UNL1        0.0722
@<TRIPOS>BOND
     1    13    14    2
     2    14    15   am
     3    15    17    1
     4    17    18   ar
     5    18    19   ar
     6    19    20   ar
     7    20    23    1
     8    23    24    1
     9    24    25    1
    10    24    26    1
    11    24    27    1
    12    20    21   ar
    13    21    22   ar
    14    14     1    1
    15     1     2   ar
    16     2     3   ar
    17     3     4   ar
    18     4    28    1
    19    28    29    1
    20    29    30    1
    21    30    31    1
    22    31    32    1
    23    32    33    1
    24    33    34    1
    25    34    35    1
    26     4     5   ar
    27     5     7    1
    28     7     8   ar
    29     8     9   ar
    30     9    10   ar
    31    10    11   ar
    32    11    12   ar
    33     5     6   ar
    34    22    17   ar
    35     6     1   ar
    36    35    31    1
    37    12     7   ar
    38    15    16    1
@<TRIPOS>MOLECULE
*****
 35 38 0 0 0
SMALL
GASTEIGER

@<TRIPOS>ATOM
      1 C         144.2029  142.4650  158.1091 C.ar    1  UNL1        0.0539
      2 C         142.8755  142.8934  157.5574 C.ar    1  UNL1        0.0076
      3 C         141.8021  143.3850  158.4827 C.ar    1  UNL1        0.0370
      4 C         142.0562  143.4482  159.9597 C.ar    1  UNL1        0.1386
      5 C         143.3836  143.0198  160.5114 C.ar    1  UNL1        0.0371
      6 C         144.4569  142.5281  159.5861 C.ar    1  UNL1        0.0076
      7 C         143.6376  143.0829  161.9883 C.ar    1  UNL1        0.0413
      8 C         143.7486  141.8169  162.7851 C.ar    1  UNL1        0.1023
      9 N         144.0026  141.8801  164.2621 N.ar    1  UNL1       -0.2224
     10 C         144.1458  143.2093  164.9423 C.ar    1  UNL1        0.1989
     11 N         144.0348  144.4753  164.1455 N.ar    1  UNL1       -0.2224
     12 C         143.7808  144.4121  162.6686 C.ar    1  UNL1        0.1023
     13 O         145.4177  140.5049  156.9123 O.2     1  UNL1       -0.2698
     14 C         145.2763  141.9733  157.1838 C.2     1  UNL1        0.2495
     15 N         146.2082  142.9501  156.5300 N.am    1  UNL1       -0.2804
     16 H         146.1154  143.9138  156.7082 H       1  UNL1        0.1552
     17 C         147.2816  142.4584  155.6047 C.ar    1  UNL1        0.0507
     18 C         146.9871  142.2730  154.1457 C.ar    1  UNL1        0.0178
     19 C         148.0605  141.7814  153.2205 C.ar    1  UNL1        0.0385
     20 C         149.4284  141.4751  153.7543 C.ar    1  UNL1        0.1469
     21 C         149.7230  141.6605  155.2134 C.ar    1  UNL1        0.0385
     22 C         148.6496  142.1522  156.1386 C.ar    1  UNL1        0.0178
     23 O         150.5019  140.9835  152.8290 O.3     1  UNL1       -0.4045
     24 C         151.9314  140.9627  153.2826 C.3     1  UNL1        0.5753
     25 F         153.3611  140.9419  153.7363 F       1  UNL1       -0.1328
     26 F         152.0794  142.4006  152.8823 F       1  UNL1       -0.1328
     27 F         151.7835  139.5247  153.6830 F       1  UNL1       -0.1328
     28 O         140.9828  143.9399  160.8850 O.3     1  UNL1       -0.4740
     29 C         140.5546  145.3767  160.8406 C.3     1  UNL1        0.2226
     30 C         139.6977  145.9381  161.9363 C.3     1  UNL1        0.1200
     31 N         139.2682  145.0623  163.0759 N.3     1  UNL1       -0.2696
     32 C         137.9373  144.3843  163.2138 C.3     1  UNL1        0.0722
     33 C         137.9407  143.6137  164.5007 C.3     1  UNL1        0.0188
     34 C         139.2738  143.8155  165.1582 C.3     1  UNL1        0.0188
     35 C         140.0942  144.7107  164.2776 C.3     1  UNL1        0.0722
@<TRIPOS>BOND
     1    13    14    2
     2    14    15   am
     3    15    17    1
     4    17    18   ar
     5    18    19   ar
     6    19    20   ar
     7    20    23    1
     8    23    24    1
     9    24    25    1
    10    24    26    1
    11    24    27    1
    12    20    21   ar
    13    21    22   ar
    14    14     1    1
    15     1     2   ar
    16     2     3   ar
    17     3     4   ar
    18     4    28    1
    19    28    29    1
    20    29    30    1
    21    30    31    1
    22    31    32    1
    23    32    33    1
    24    33    34    1
    25    34    35    1
    26     4     5   ar
    27     5     7    1
    28     7     8   ar
    29     8     9   ar
    30     9    10   ar
    31    10    11   ar
    32    11    12   ar
    33     5     6   ar
    34    22    17   ar
    35     6     1   ar
    36    35    31    1
    37    12     7   ar
    38    15    16    1
@<TRIPOS>MOLECULE
*****
 35 38 0 0 0
SMALL
GASTEIGER

@<TRIPOS>ATOM
      1 C         142.3279  139.3908  162.3182 C.ar    1  UNL1        0.0539
      2 C         143.5086  138.5063  162.0469 C.ar    1  UNL1        0.0076
      3 C         143.7982  138.0504  160.6476 C.ar    1  UNL1        0.0370
      4 C         142.9072  138.4789  159.5196 C.ar    1  UNL1        0.1386
      5 C         141.7266  139.3635  159.7909 C.ar    1  UNL1        0.0371
      6 C         141.4369  139.8194  161.1902 C.ar    1  UNL1        0.0076
      7 C         140.8356  139.7921  158.6629 C.ar    1  UNL1        0.0413
      8 C         139.6056  138.9984  158.3355 C.ar    1  UNL1        0.1023
      9 N         138.7146  139.4270  157.2075 N.ar    1  UNL1       -0.2224
     10 C         139.0536  140.6493  156.4068 C.ar    1  UNL1        0.1989
     11 N         140.2835  141.4429  156.7342 N.ar    1  UNL1       -0.2224
     12 C         141.1745  141.0144  157.8622 C.ar    1  UNL1        0.1023
     13 O         142.0824  141.3078  164.0546 O.2     1  UNL1       -0.2698
     14 C         142.0383  139.8468  163.7176 C.2     1  UNL1        0.2495
     15 N         141.7045  138.8419  164.7799 N.am    1  UNL1       -0.2804
     16 H         141.6755  137.8830  164.5588 H       1  UNL1        0.1552
     17 C         141.4148  139.2979  166.1793 C.ar    1  UNL1        0.0507
     18 C         140.0162  139.6717  166.5720 C.ar    1  UNL1        0.0178
     19 C         139.7266  140.1276  167.9713 C.ar    1  UNL1        0.0385
     20 C         140.8356  140.2098  168.9780 C.ar    1  UNL1        0.1469
     21 C         142.2341  139.8360  168.5854 C.ar    1  UNL1        0.0385
     22 C         142.5238  139.3800  167.1860 C.ar    1  UNL1        0.0178
     23 O         140.5459  140.6658  170.3774 O.3     1  UNL1       -0.4045
     24 C         140.0021  142.0425  170.6202 C.3     1  UNL1        0.5753
     25 F         139.4582  143.4192  170.8629 F       1  UNL1       -0.1328
     26 F         141.3977  142.5622  170.7993 F       1  UNL1       -0.1328
     27 F         138.6065  141.5228  170.4410 F       1  UNL1       -0.1328
     28 O         143.1969  138.0229  158.1202 O.3     1  UNL1       -0.4740
     29 C         142.5298  136.7934  157.5788 C.3     1  UNL1        0.2226
     30 C         143.2252  135.9554  156.5472 C.3     1  UNL1        0.1200
     31 N         142.9308  134.4878  156.4503 N.3     1  UNL1       -0.2696
     32 C         141.9948  133.8388  155.4743 C.3     1  UNL1        0.0722
     33 C         142.0063  132.3614  155.7333 C.3     1  UNL1        0.0188
     34 C         142.9494  132.0972  156.8695 C.3     1  UNL1        0.0188
     35 C         143.5207  133.4114  157.3126 C.3     1  UNL1        0.0722
@<TRIPOS>BOND
     1    13    14    2
     2    14    15   am
     3    15    17    1
     4    17    18   ar
     5    18    19   ar
     6    19    20   ar
     7    20    23    1
     8    23    24    1
     9    24    25    1
    10    24    26    1
    11    24    27    1
    12    20    21   ar
    13    21    22   ar
    14    14     1    1
    15     1     2   ar
    16     2     3   ar
    17     3     4   ar
    18     4    28    1
    19    28    29    1
    20    29    30    1
    21    30    31    1
    22    31    32    1
    23    32    33    1
    24    33    34    1
    25    34    35    1
    26     4     5   ar
    27     5     7    1
    28     7     8   ar
    29     8     9   ar
    30     9    10   ar
    31    10    11   ar
    32    11    12   ar
    33     5     6   ar
    34    22    17   ar
    35     6     1   ar
    36    35    31    1
    37    12     7   ar
    38    15    16    1
@<TRIPOS>MOLECULE
*****
 35 38 0 0 0
SMALL
GASTEIGER

@<TRIPOS>ATOM
      1 C         142.2480  139.4455  162.0551 C.ar    1  UNL1        0.0539
      2 C         142.4502  137.9949  161.7315 C.ar    1  UNL1        0.0076
      3 C         142.8104  137.5811  160.3355 C.ar    1  UNL1        0.0370
      4 C         142.9684  138.6179  159.2631 C.ar    1  UNL1        0.1386
      5 C         142.7661  140.0685  159.5867 C.ar    1  UNL1        0.0371
      6 C         142.4060  140.4823  160.9827 C.ar    1  UNL1        0.0076
      7 C         142.9241  141.1053  158.5142 C.ar    1  UNL1        0.0413
      8 C         144.2948  141.5182  158.0663 C.ar    1  UNL1        0.1023
      9 N         144.4527  142.5550  156.9938 N.ar    1  UNL1       -0.2224
     10 C         143.2400  143.1789  156.3694 C.ar    1  UNL1        0.1989
     11 N         141.8693  142.7660  156.8173 N.ar    1  UNL1       -0.2224
     12 C         141.7114  141.7292  157.8898 C.ar    1  UNL1        0.1023
     13 O         141.5571  141.2923  163.7469 O.2     1  UNL1       -0.2698
     14 C         141.8878  139.8594  163.4512 C.2     1  UNL1        0.2495
     15 N         141.8584  138.8404  164.5516 N.am    1  UNL1       -0.2804
     16 H         142.0755  137.9000  164.3575 H       1  UNL1        0.1552
     17 C         141.4982  139.2543  165.9477 C.ar    1  UNL1        0.0507
     18 C         140.0659  139.5201  166.3052 C.ar    1  UNL1        0.0178
     19 C         139.7058  139.9340  167.7012 C.ar    1  UNL1        0.0385
     20 C         140.7780  140.0821  168.7398 C.ar    1  UNL1        0.1469
     21 C         142.2103  139.8163  168.3822 C.ar    1  UNL1        0.0385
     22 C         142.5704  139.4024  166.9862 C.ar    1  UNL1        0.0178
     23 O         140.4178  140.4959  170.1359 O.3     1  UNL1       -0.4045
     24 C         139.9655  141.8998  170.4088 C.3     1  UNL1        0.5753
     25 F         139.5132  143.3037  170.6818 F       1  UNL1       -0.1328
     26 F         138.5355  141.4596  170.3035 F       1  UNL1       -0.1328
     27 F         141.3956  142.3400  170.5142 F       1  UNL1       -0.1328
     28 O         143.3286  138.2040  157.8669 O.3     1  UNL1       -0.4740
     29 C         142.5977  137.0718  157.2082 C.3     1  UNL1        0.2226
     30 C         143.3337  136.1309  156.3011 C.3     1  UNL1        0.1200
     31 N         143.0292  134.6626  156.3367 N.3     1  UNL1       -0.2696
     32 C         143.6728  133.6502  157.2372 C.3     1  UNL1        0.0722
     33 C         143.0689  132.3108  156.9352 C.3     1  UNL1        0.0188
     34 C         142.0520  132.4953  155.8480 C.3     1  UNL1        0.0188
     35 C         142.0275  133.9488  155.4782 C.3     1  UNL1        0.0722
@<TRIPOS>BOND
     1    13    14    2
     2    14    15   am
     3    15    17    1
     4    17    18   ar
     5    18    19   ar
     6    19    20   ar
     7    20    23    1
     8    23    24    1
     9    24    25    1
    10    24    26    1
    11    24    27    1
    12    20    21   ar
    13    21    22   ar
    14    14     1    1
    15     1     2   ar
    16     2     3   ar
    17     3     4   ar
    18     4    28    1
    19    28    29    1
    20    29    30    1
    21    30    31    1
    22    31    32    1
    23    32    33    1
    24    33    34    1
    25    34    35    1
    26     4     5   ar
    27     5     7    1
    28     7     8   ar
    29     8     9   ar
    30     9    10   ar
    31    10    11   ar
    32    11    12   ar
    33     5     6   ar
    34    22    17   ar
    35     6     1   ar
    36    35    31    1
    37    12     7   ar
    38    15    16    1
@<TRIPOS>MOLECULE
*****
 35 38 0 0 0
SMALL
GASTEIGER

@<TRIPOS>ATOM
      1 C         141.4203  144.5026  159.5645 C.ar    1  UNL1        0.0539
      2 C         141.1645  144.9920  160.9591 C.ar    1  UNL1        0.0076
      3 C         141.2711  144.0452  162.1176 C.ar    1  UNL1        0.0370
      4 C         141.6335  142.6089  161.8815 C.ar    1  UNL1        0.1386
      5 C         141.8892  142.1194  160.4869 C.ar    1  UNL1        0.0371
      6 C         141.7827  143.0663  159.3284 C.ar    1  UNL1        0.0076
      7 C         142.2516  140.6831  160.2508 C.ar    1  UNL1        0.0413
      8 C         141.1956  139.7014  159.8373 C.ar    1  UNL1        0.1023
      9 N         141.5579  138.2651  159.6012 N.ar    1  UNL1       -0.2224
     10 C         142.9763  137.8105  159.7786 C.ar    1  UNL1        0.1989
     11 N         144.0323  138.7922  160.1921 N.ar    1  UNL1       -0.2224
     12 C         143.6700  140.2285  160.4282 C.ar    1  UNL1        0.1023
     13 O         142.5135  146.2357  157.9672 O.2     1  UNL1       -0.2698
     14 C         141.3138  145.4494  158.4059 C.2     1  UNL1        0.2495
     15 N         140.0076  145.6099  157.6862 N.am    1  UNL1       -0.2804
     16 H         139.2202  145.0938  157.9742 H       1  UNL1        0.1552
     17 C         139.9010  146.5567  156.5276 C.ar    1  UNL1        0.0507
     18 C         140.6933  146.3061  155.2789 C.ar    1  UNL1        0.0178
     19 C         140.5867  147.2529  154.1204 C.ar    1  UNL1        0.0385
     20 C         139.6879  148.4503  154.2106 C.ar    1  UNL1        0.1469
     21 C         138.8956  148.7010  155.4594 C.ar    1  UNL1        0.0385
     22 C         139.0022  147.7542  156.6179 C.ar    1  UNL1        0.0178
     23 O         139.5813  149.3972  153.0521 O.3     1  UNL1       -0.4045
     24 C         139.9665  150.8368  153.2221 C.3     1  UNL1        0.5753
     25 F         140.3516  152.2766  153.3922 F       1  UNL1       -0.1328
     26 F         138.7440  151.2540  152.4596 F       1  UNL1       -0.1328
     27 F         141.1889  150.4197  153.9847 F       1  UNL1       -0.1328
     28 O         141.7400  141.6621  163.0401 O.3     1  UNL1       -0.4740
     29 C         140.5967  140.7489  163.3699 C.3     1  UNL1        0.2226
     30 C         139.7035  141.0561  164.5351 C.3     1  UNL1        0.1200
     31 N         139.1433  142.4370  164.7071 N.3     1  UNL1       -0.2696
     32 C         137.8821  142.9603  164.0863 C.3     1  UNL1        0.0722
     33 C         137.7052  144.3836  164.5255 C.3     1  UNL1        0.0188
     34 C         138.8572  144.7400  165.4178 C.3     1  UNL1        0.0188
     35 C         139.7460  143.5368  165.5299 C.3     1  UNL1        0.0722
@<TRIPOS>BOND
     1    13    14    2
     2    14    15   am
     3    15    17    1
     4    17    18   ar
     5    18    19   ar
     6    19    20   ar
     7    20    23    1
     8    23    24    1
     9    24    25    1
    10    24    26    1
    11    24    27    1
    12    20    21   ar
    13    21    22   ar
    14    14     1    1
    15     1     2   ar
    16     2     3   ar
    17     3     4   ar
    18     4    28    1
    19    28    29    1
    20    29    30    1
    21    30    31    1
    22    31    32    1
    23    32    33    1
    24    33    34    1
    25    34    35    1
    26     4     5   ar
    27     5     7    1
    28     7     8   ar
    29     8     9   ar
    30     9    10   ar
    31    10    11   ar
    32    11    12   ar
    33     5     6   ar
    34    22    17   ar
    35     6     1   ar
    36    35    31    1
    37    12     7   ar
    38    15    16    1
@<TRIPOS>MOLECULE
*****
 35 38 0 0 0
SMALL
GASTEIGER

@<TRIPOS>ATOM
      1 C         141.8989  143.4759  159.1314 C.ar    1  UNL1        0.0539
      2 C         141.3743  144.8561  159.3957 C.ar    1  UNL1        0.0076
      3 C         140.2717  145.0614  160.3917 C.ar    1  UNL1        0.0370
      4 C         139.6937  143.8864  161.1235 C.ar    1  UNL1        0.1386
      5 C         140.2184  142.5063  160.8593 C.ar    1  UNL1        0.0371
      6 C         141.3209  142.3010  159.8632 C.ar    1  UNL1        0.0076
      7 C         139.6404  141.3314  161.5911 C.ar    1  UNL1        0.0413
      8 C         140.3427  140.7787  162.7957 C.ar    1  UNL1        0.1023
      9 N         139.7647  139.6038  163.5275 N.ar    1  UNL1       -0.2224
     10 C         138.4844  138.9815  163.0546 C.ar    1  UNL1        0.1989
     11 N         137.7821  139.5342  161.8500 N.ar    1  UNL1       -0.2224
     12 C         138.3601  140.7091  161.1182 C.ar    1  UNL1        0.1023
     13 O         142.9528  143.9680  156.8082 O.2     1  UNL1       -0.2698
     14 C         143.0016  143.2706  158.1354 C.2     1  UNL1        0.2495
     15 N         144.1528  142.3680  158.4664 N.am    1  UNL1       -0.2804
     16 H         144.1848  141.9102  159.3375 H       1  UNL1        0.1552
     17 C         145.2555  142.1626  157.4703 C.ar    1  UNL1        0.0507
     18 C         146.5510  142.9033  157.6223 C.ar    1  UNL1        0.0178
     19 C         147.6535  142.6980  156.6262 C.ar    1  UNL1        0.0385
     20 C         147.4606  141.7520  155.4783 C.ar    1  UNL1        0.1469
     21 C         146.1652  141.0113  155.3263 C.ar    1  UNL1        0.0385
     22 C         145.0626  141.2166  156.3224 C.ar    1  UNL1        0.0178
     23 O         148.5633  141.5467  154.4822 O.3     1  UNL1       -0.4045
     24 C         149.1713  142.7260  153.7827 C.3     1  UNL1        0.5753
     25 F         149.7793  143.9055  153.0831 F       1  UNL1       -0.1328
     26 F         147.8241  143.0973  153.2376 F       1  UNL1       -0.1328
     27 F         150.5185  142.3548  154.3277 F       1  UNL1       -0.1328
     28 O         138.5911  144.0918  162.1196 O.3     1  UNL1       -0.4740
     29 C         138.8666  144.8137  163.4052 C.3     1  UNL1        0.2226
     30 C         139.7526  144.1884  164.4415 C.3     1  UNL1        0.1200
     31 N         141.2438  144.2620  164.2966 N.3     1  UNL1       -0.2696
     32 C         142.0153  145.3927  163.6831 C.3     1  UNL1        0.0722
     33 C         143.4736  145.0473  163.7471 C.3     1  UNL1        0.0188
     34 C         143.6034  143.7031  164.4001 C.3     1  UNL1        0.0188
     35 C         142.2253  143.2178  164.7397 C.3     1  UNL1        0.0722
@<TRIPOS>BOND
     1    13    14    2
     2    14    15   am
     3    15    17    1
     4    17    18   ar
     5    18    19   ar
     6    19    20   ar
     7    20    23    1
     8    23    24    1
     9    24    25    1
    10    24    26    1
    11    24    27    1
    12    20    21   ar
    13    21    22   ar
    14    14     1    1
    15     1     2   ar
    16     2     3   ar
    17     3     4   ar
    18     4    28    1
    19    28    29    1
    20    29    30    1
    21    30    31    1
    22    31    32    1
    23    32    33    1
    24    33    34    1
    25    34    35    1
    26     4     5   ar
    27     5     7    1
    28     7     8   ar
    29     8     9   ar
    30     9    10   ar
    31    10    11   ar
    32    11    12   ar
    33     5     6   ar
    34    22    17   ar
    35     6     1   ar
    36    35    31    1
    37    12     7   ar
    38    15    16    1
@<TRIPOS>MOLECULE
*****
 35 38 0 0 0
SMALL
GASTEIGER

@<TRIPOS>ATOM
      1 C         142.5328  139.2268  161.5947 C.ar    1  UNL1        0.0539
      2 C         143.3185  138.2239  160.8030 C.ar    1  UNL1        0.0076
      3 C         142.9895  137.9842  159.3593 C.ar    1  UNL1        0.0370
      4 C         141.8747  138.7472  158.7074 C.ar    1  UNL1        0.1386
      5 C         141.0890  139.7501  159.4992 C.ar    1  UNL1        0.0371
      6 C         141.4180  139.9898  160.9428 C.ar    1  UNL1        0.0076
      7 C         139.9742  140.5131  158.8472 C.ar    1  UNL1        0.0413
      8 C         140.1926  141.9302  158.4068 C.ar    1  UNL1        0.1023
      9 N         139.0778  142.6933  157.7549 N.ar    1  UNL1       -0.2224
     10 C         137.7446  142.0392  157.5434 C.ar    1  UNL1        0.1989
     11 N         137.5262  140.6221  157.9838 N.ar    1  UNL1       -0.2224
     12 C         138.6410  139.8591  158.6358 C.ar    1  UNL1        0.1023
     13 O         144.2006  139.0611  163.5799 O.2     1  UNL1       -0.2698
     14 C         142.8619  139.4666  163.0385 C.2     1  UNL1        0.2495
     15 N         141.8521  140.1120  163.9406 N.am    1  UNL1       -0.2804
     16 H         140.9735  140.3781  163.5852 H       1  UNL1        0.1552
     17 C         142.1812  140.3518  165.3844 C.ar    1  UNL1        0.0507
     18 C         142.2113  139.2024  166.3477 C.ar    1  UNL1        0.0178
     19 C         142.5403  139.4423  167.7913 C.ar    1  UNL1        0.0385
     20 C         142.8393  140.8315  168.2716 C.ar    1  UNL1        0.1469
     21 C         142.8092  141.9809  167.3083 C.ar    1  UNL1        0.0385
     22 C         142.4801  141.7410  165.8647 C.ar    1  UNL1        0.0178
     23 O         143.1683  141.0714  169.7154 O.3     1  UNL1       -0.4045
     24 C         143.2078  142.4711  170.2531 C.3     1  UNL1        0.5753
     25 F         143.2473  143.8709  170.7909 F       1  UNL1       -0.1328
     26 F         144.6858  142.5254  170.0031 F       1  UNL1       -0.1328
     27 F         141.7298  142.4167  170.5031 F       1  UNL1       -0.1328
     28 O         141.5456  138.5074  157.2637 O.3     1  UNL1       -0.4740
     29 C         140.8108  137.2641  156.8584 C.3     1  UNL1        0.2226
     30 C         141.3699  136.3790  155.7843 C.3     1  UNL1        0.1200
     31 N         142.0486  135.0923  156.1504 N.3     1  UNL1       -0.2696
     32 C         143.1777  134.9375  157.1257 C.3     1  UNL1        0.0722
     33 C         143.5442  133.4841  157.1836 C.3     1  UNL1        0.0188
     34 C         142.6416  132.7407  156.2440 C.3     1  UNL1        0.0188
     35 C         141.7173  133.7346  155.6055 C.3     1  UNL1        0.0722
@<TRIPOS>BOND
     1    13    14    2
     2    14    15   am
     3    15    17    1
     4    17    18   ar
     5    18    19   ar
     6    19    20   ar
     7    20    23    1
     8    23    24    1
     9    24    25    1
    10    24    26    1
    11    24    27    1
    12    20    21   ar
    13    21    22   ar
    14    14     1    1
    15     1     2   ar
    16     2     3   ar
    17     3     4   ar
    18     4    28    1
    19    28    29    1
    20    29    30    1
    21    30    31    1
    22    31    32    1
    23    32    33    1
    24    33    34    1
    25    34    35    1
    26     4     5   ar
    27     5     7    1
    28     7     8   ar
    29     8     9   ar
    30     9    10   ar
    31    10    11   ar
    32    11    12   ar
    33     5     6   ar
    34    22    17   ar
    35     6     1   ar
    36    35    31    1
    37    12     7   ar
    38    15    16    1
