@<TRIPOS>MOLECULE
*****
 33 37 0 0 0
SMALL
GASTEIGER

@<TRIPOS>ATOM
      1 C         140.4807  142.8062  166.0098 C.3     1  UNL1        0.0325
      2 C         141.6209  142.4250  165.1129 C.ar    1  UNL1       -0.0058
      3 C         142.7969  141.6791  165.6706 C.ar    1  UNL1       -0.0003
      4 C         143.9371  141.2979  164.7736 C.ar    1  UNL1       -0.0000
      5 C         143.9015  141.6624  163.3191 C.ar    1  UNL1        0.0045
      6 C         142.7256  142.4082  162.7613 C.ar    1  UNL1        0.0518
      7 C         142.6899  142.7728  161.3068 C.ar    1  UNL1        0.1704
      8 O         143.6598  142.5331  160.1879 O.2     1  UNL1       -0.4368
      9 C         143.0833  143.1309  158.9388 C.ar    1  UNL1        0.2217
     10 N         141.7571  143.7399  159.2856 N.ar    1  UNL1       -0.2060
     11 C         141.5140  143.5186  160.7491 C.ar    1  UNL1        0.1744
     12 C         140.3737  143.8999  161.6460 C.ar    1  UNL1        0.2816
     13 O         139.1978  144.6457  161.0884 O.2     1  UNL1       -0.2652
     14 N         140.4094  143.5353  163.1006 N.ar    1  UNL1       -0.2963
     15 C         141.5853  142.7895  163.6583 C.ar    1  UNL1        0.0614
     16 C         142.8326  141.3146  167.1251 C.ar    1  UNL1        0.0295
     17 C         143.2784  142.3244  168.1407 C.ar    1  UNL1        0.0331
     18 C         143.3140  141.9597  169.5953 C.ar    1  UNL1        0.1530
     19 F         143.7599  142.9696  170.6109 F       1  UNL1       -0.2029
     20 C         142.9039  140.5853  170.0343 C.ar    1  UNL1        0.0716
     21 N         142.9396  140.2207  171.4889 N.pl3   1  UNL1       -0.3552
     22 C         142.4581  139.5755  169.0186 C.ar    1  UNL1        0.0460
     23 C         142.4224  139.9401  167.5641 C.ar    1  UNL1        0.1414
     24 F         141.9766  138.9303  166.5485 F       1  UNL1       -0.2041
     25 H         143.2322  140.8836  172.1555 H       1  UNL1        0.1424
     26 H         142.6704  139.3187  171.7770 H       1  UNL1        0.1424
     27 C         143.7210  143.1212  157.5811 C.3     1  UNL1        0.1518
     28 N         145.1655  142.7447  157.4336 N.3     1  UNL1       -0.3134
     29 H         145.7480  143.4461  157.8909 H       1  UNL1        0.1193
     30 H         145.4050  142.6969  156.4433 H       1  UNL1        0.1193
     31 C         139.2691  143.9166  163.9975 C.3     1  UNL1        0.0885
     32 C         138.6812  144.8246  165.0367 C.3     1  UNL1        0.0246
     33 C         137.8819  143.6689  164.5118 C.3     1  UNL1        0.0246
@<TRIPOS>BOND
     1     1     2    1
     2     2     3   ar
     3     3    16    1
     4    16    17   ar
     5    17    18   ar
     6    18    19    1
     7    18    20   ar
     8    20    21    1
     9    20    22   ar
    10    22    23   ar
    11    23    24    1
    12     3     4   ar
    13     4     5   ar
    14     5     6   ar
    15     6     7   ar
    16     7     8   ar
    17     8     9   ar
    18     9    27    1
    19    27    28    1
    20     9    10   ar
    21    10    11   ar
    22    11    12   ar
    23    12    13    2
    24    12    14   ar
    25    14    31    1
    26    31    32    1
    27    32    33    1
    28    14    15   ar
    29    15     2   ar
    30    23    16   ar
    31    15     6   ar
    32    11     7   ar
    33    33    31    1
    34    21    25    1
    35    21    26    1
    36    28    29    1
    37    28    30    1
@<TRIPOS>MOLECULE
*****
 33 37 0 0 0
SMALL
GASTEIGER

@<TRIPOS>ATOM
      1 C         142.8378  141.4409  165.3524 C.3     1  UNL1        0.0325
      2 C         141.7445  142.2328  164.6986 C.ar    1  UNL1       -0.0058
      3 C         140.4595  142.4837  165.4306 C.ar    1  UNL1       -0.0003
      4 C         139.3662  143.2756  164.7768 C.ar    1  UNL1       -0.0000
      5 C         139.5577  143.8166  163.3910 C.ar    1  UNL1        0.0045
      6 C         140.8427  143.5658  162.6589 C.ar    1  UNL1        0.0518
      7 C         141.0344  144.1068  161.2730 C.ar    1  UNL1        0.1704
      8 O         140.1421  144.9162  160.3793 O.2     1  UNL1       -0.4368
      9 C         140.8757  145.1655  159.0949 C.ar    1  UNL1        0.2217
     10 N         142.2213  144.5102  159.1948 N.ar    1  UNL1       -0.2060
     11 C         142.3194  143.8558  160.5410 C.ar    1  UNL1        0.1744
     12 C         143.4127  143.0640  161.1948 C.ar    1  UNL1        0.2816
     13 O         144.6977  142.8130  160.4628 O.2     1  UNL1       -0.2652
     14 N         143.2211  142.5230  162.5807 N.ar    1  UNL1       -0.2963
     15 C         141.9362  142.7738  163.3127 C.ar    1  UNL1        0.0614
     16 C         140.2679  141.9427  166.8165 C.ar    1  UNL1        0.0295
     17 C         140.6016  142.7929  168.0063 C.ar    1  UNL1        0.0331
     18 C         140.4099  142.2518  169.3922 C.ar    1  UNL1        0.1530
     19 F         140.7437  143.1020  170.5820 F       1  UNL1       -0.2029
     20 C         139.8845  140.8606  169.5882 C.ar    1  UNL1        0.0716
     21 N         139.6929  140.3196  170.9740 N.pl3   1  UNL1       -0.3552
     22 C         139.5508  140.0104  168.3982 C.ar    1  UNL1        0.0460
     23 C         139.7424  140.5515  167.0125 C.ar    1  UNL1        0.1414
     24 F         139.4087  139.7013  165.8226 F       1  UNL1       -0.2041
     25 H         139.9119  140.8776  171.7549 H       1  UNL1        0.1424
     26 H         139.3480  139.4065  171.1027 H       1  UNL1        0.1424
     27 C         140.3551  145.9351  157.9173 C.3     1  UNL1        0.1518
     28 N         141.2989  146.3980  156.8473 N.3     1  UNL1       -0.3134
     29 H         141.9387  147.0914  157.2350 H       1  UNL1        0.1193
     30 H         140.7679  146.8152  156.0828 H       1  UNL1        0.1193
     31 C         144.3145  141.7310  163.2345 C.3     1  UNL1        0.0885
     32 C         145.6154  141.6817  163.9795 C.3     1  UNL1        0.0246
     33 C         144.9073  140.4087  163.6218 C.3     1  UNL1        0.0246
@<TRIPOS>BOND
     1     1     2    1
     2     2     3   ar
     3     3    16    1
     4    16    17   ar
     5    17    18   ar
     6    18    19    1
     7    18    20   ar
     8    20    21    1
     9    20    22   ar
    10    22    23   ar
    11    23    24    1
    12     3     4   ar
    13     4     5   ar
    14     5     6   ar
    15     6     7   ar
    16     7     8   ar
    17     8     9   ar
    18     9    27    1
    19    27    28    1
    20     9    10   ar
    21    10    11   ar
    22    11    12   ar
    23    12    13    2
    24    12    14   ar
    25    14    31    1
    26    31    32    1
    27    32    33    1
    28    14    15   ar
    29    15     2   ar
    30    23    16   ar
    31    15     6   ar
    32    11     7   ar
    33    33    31    1
    34    21    25    1
    35    21    26    1
    36    28    29    1
    37    28    30    1
@<TRIPOS>MOLECULE
*****
 33 37 0 0 0
SMALL
GASTEIGER

@<TRIPOS>ATOM
      1 C         139.8179  142.5479  166.0396 C.3     1  UNL1        0.0325
      2 C         140.2279  141.3019  165.3120 C.ar    1  UNL1       -0.0058
      3 C         140.9432  140.2061  166.0452 C.ar    1  UNL1       -0.0003
      4 C         141.3531  138.9602  165.3176 C.ar    1  UNL1       -0.0000
      5 C         141.0479  138.8099  163.8567 C.ar    1  UNL1        0.0045
      6 C         140.3326  139.9056  163.1234 C.ar    1  UNL1        0.0518
      7 C         140.0272  139.7554  161.6625 C.ar    1  UNL1        0.1704
      8 O         140.3058  138.6501  160.6874 O.2     1  UNL1       -0.4368
      9 C         139.7626  139.0628  159.3515 C.ar    1  UNL1        0.2217
     10 N         139.1484  140.4231  159.5009 N.ar    1  UNL1       -0.2060
     11 C         139.3119  140.8512  160.9292 C.ar    1  UNL1        0.1744
     12 C         138.9020  142.0972  161.6569 C.ar    1  UNL1        0.2816
     13 O         138.1867  143.1929  160.9236 O.2     1  UNL1       -0.2652
     14 N         139.2073  142.2474  163.1178 N.ar    1  UNL1       -0.2963
     15 C         139.9225  141.1517  163.8510 C.ar    1  UNL1        0.0614
     16 C         141.2485  140.3563  167.5061 C.ar    1  UNL1        0.0295
     17 C         142.5631  140.9322  167.9422 C.ar    1  UNL1        0.0331
     18 C         142.8683  141.0824  169.4032 C.ar    1  UNL1        0.1530
     19 F         144.1829  141.6583  169.8393 F       1  UNL1       -0.2029
     20 C         141.8590  140.6567  170.4280 C.ar    1  UNL1        0.0716
     21 N         142.1644  140.8069  171.8888 N.pl3   1  UNL1       -0.3552
     22 C         140.5444  140.0808  169.9917 C.ar    1  UNL1        0.0460
     23 C         140.2392  139.9307  168.5308 C.ar    1  UNL1        0.1414
     24 F         138.9246  139.3548  168.0947 F       1  UNL1       -0.2041
     25 H         143.0272  141.1849  172.1751 H       1  UNL1        0.1424
     26 H         141.5019  140.5275  172.5614 H       1  UNL1        0.1424
     27 C         139.8230  138.2567  158.0880 C.3     1  UNL1        0.1518
     28 N         139.0329  138.6846  156.8869 N.3     1  UNL1       -0.3134
     29 H         138.0364  138.6082  157.0906 H       1  UNL1        0.1193
     30 H         139.2652  138.0843  156.0956 H       1  UNL1        0.1193
     31 C         138.7973  143.4934  163.8454 C.3     1  UNL1        0.0885
     32 C         139.1127  144.8765  164.3328 C.3     1  UNL1        0.0246
     33 C         137.7715  144.2684  164.6182 C.3     1  UNL1        0.0246
@<TRIPOS>BOND
     1     1     2    1
     2     2     3   ar
     3     3    16    1
     4    16    17   ar
     5    17    18   ar
     6    18    19    1
     7    18    20   ar
     8    20    21    1
     9    20    22   ar
    10    22    23   ar
    11    23    24    1
    12     3     4   ar
    13     4     5   ar
    14     5     6   ar
    15     6     7   ar
    16     7     8   ar
    17     8     9   ar
    18     9    27    1
    19    27    28    1
    20     9    10   ar
    21    10    11   ar
    22    11    12   ar
    23    12    13    2
    24    12    14   ar
    25    14    31    1
    26    31    32    1
    27    32    33    1
    28    14    15   ar
    29    15     2   ar
    30    23    16   ar
    31    15     6   ar
    32    11     7   ar
    33    33    31    1
    34    21    25    1
    35    21    26    1
    36    28    29    1
    37    28    30    1
@<TRIPOS>MOLECULE
*****
 33 37 0 0 0
SMALL
GASTEIGER

@<TRIPOS>ATOM
      1 C         140.6341  139.8359  165.8829 C.3     1  UNL1        0.0325
      2 C         140.4935  141.0510  165.0147 C.ar    1  UNL1       -0.0058
      3 C         140.8198  142.4077  165.5650 C.ar    1  UNL1       -0.0003
      4 C         140.6792  143.6229  164.6968 C.ar    1  UNL1       -0.0000
      5 C         140.2122  143.4813  163.2784 C.ar    1  UNL1        0.0045
      6 C         139.8858  142.1246  162.7281 C.ar    1  UNL1        0.0518
      7 C         139.4188  141.9830  161.3097 C.ar    1  UNL1        0.1704
      8 O         139.1860  142.9917  160.2243 O.2     1  UNL1       -0.4368
      9 C         138.7158  142.2584  159.0032 C.ar    1  UNL1        0.2217
     10 N         138.6580  140.7965  159.3339 N.ar    1  UNL1       -0.2060
     11 C         139.0925  140.6262  160.7595 C.ar    1  UNL1        0.1744
     12 C         139.2331  139.4111  161.6276 C.ar    1  UNL1        0.2816
     13 O         138.9067  138.0544  161.0774 O.2     1  UNL1       -0.2652
     14 N         139.7001  139.5527  163.0460 N.ar    1  UNL1       -0.2963
     15 C         140.0265  140.9094  163.5963 C.ar    1  UNL1        0.0614
     16 C         141.2868  142.5494  166.9834 C.ar    1  UNL1        0.0295
     17 C         140.3274  142.9916  168.0482 C.ar    1  UNL1        0.0331
     18 C         140.7946  143.1332  169.4667 C.ar    1  UNL1        0.1530
     19 F         139.8352  143.5754  170.5316 F       1  UNL1       -0.2029
     20 C         142.2210  142.8326  169.8202 C.ar    1  UNL1        0.0716
     21 N         142.6880  142.9742  171.2385 N.pl3   1  UNL1       -0.3552
     22 C         143.1803  142.3904  168.7552 C.ar    1  UNL1        0.0460
     23 C         142.7133  142.2488  167.3368 C.ar    1  UNL1        0.1414
     24 F         143.6727  141.8065  166.2720 F       1  UNL1       -0.2041
     25 H         142.0583  143.2645  171.9375 H       1  UNL1        0.1424
     26 H         143.6242  142.7769  171.4706 H       1  UNL1        0.1424
     27 C         138.3650  142.8782  157.6830 C.3     1  UNL1        0.1518
     28 N         137.0395  142.5844  157.0451 N.3     1  UNL1       -0.3134
     29 H         136.9974  141.5984  156.7874 H       1  UNL1        0.1193
     30 H         136.9294  143.1592  156.2098 H       1  UNL1        0.1193
     31 C         139.8407  138.3375  163.9142 C.3     1  UNL1        0.0885
     32 C         139.2578  137.3751  164.9061 C.3     1  UNL1        0.0246
     33 C         140.6674  137.1952  164.4258 C.3     1  UNL1        0.0246
@<TRIPOS>BOND
     1     1     2    1
     2     2     3   ar
     3     3    16    1
     4    16    17   ar
     5    17    18   ar
     6    18    19    1
     7    18    20   ar
     8    20    21    1
     9    20    22   ar
    10    22    23   ar
    11    23    24    1
    12     3     4   ar
    13     4     5   ar
    14     5     6   ar
    15     6     7   ar
    16     7     8   ar
    17     8     9   ar
    18     9    27    1
    19    27    28    1
    20     9    10   ar
    21    10    11   ar
    22    11    12   ar
    23    12    13    2
    24    12    14   ar
    25    14    31    1
    26    31    32    1
    27    32    33    1
    28    14    15   ar
    29    15     2   ar
    30    23    16   ar
    31    15     6   ar
    32    11     7   ar
    33    33    31    1
    34    21    25    1
    35    21    26    1
    36    28    29    1
    37    28    30    1
@<TRIPOS>MOLECULE
*****
 33 37 0 0 0
SMALL
GASTEIGER

@<TRIPOS>ATOM
      1 C         142.4116  142.1270  165.8018 C.3     1  UNL1        0.0325
      2 C         142.1440  140.8276  165.1018 C.ar    1  UNL1       -0.0058
      3 C         141.5960  139.6611  165.8693 C.ar    1  UNL1       -0.0003
      4 C         141.3285  138.3618  165.1693 C.ar    1  UNL1       -0.0000
      5 C         141.6090  138.2287  163.7018 C.ar    1  UNL1        0.0045
      6 C         142.1570  139.3952  162.9342 C.ar    1  UNL1        0.0518
      7 C         142.4374  139.2622  161.4667 C.ar    1  UNL1        0.1704
      8 O         142.2752  138.1153  160.5137 O.2     1  UNL1       -0.4368
      9 C         142.7229  138.5729  159.1572 C.ar    1  UNL1        0.2217
     10 N         143.1619  140.0027  159.2718 N.ar    1  UNL1       -0.2060
     11 C         142.9854  140.4287  160.6991 C.ar    1  UNL1        0.1744
     12 C         143.2529  141.7281  161.3991 C.ar    1  UNL1        0.2816
     13 O         143.8009  142.8945  160.6316 O.2     1  UNL1       -0.2652
     14 N         142.9725  141.8610  162.8667 N.ar    1  UNL1       -0.2963
     15 C         142.4245  140.6946  163.6342 C.ar    1  UNL1        0.0614
     16 C         141.3156  139.7941  167.3368 C.ar    1  UNL1        0.0295
     17 C         142.4133  139.5678  168.3337 C.ar    1  UNL1        0.0331
     18 C         142.1327  139.7008  169.8013 C.ar    1  UNL1        0.1530
     19 F         143.2304  139.4745  170.7982 F       1  UNL1       -0.2029
     20 C         140.7545  140.0600  170.2719 C.ar    1  UNL1        0.0716
     21 N         140.4740  140.1929  171.7394 N.pl3   1  UNL1       -0.3552
     22 C         139.6568  140.2862  169.2749 C.ar    1  UNL1        0.0460
     23 C         139.9374  140.1533  167.8075 C.ar    1  UNL1        0.1414
     24 F         138.8396  140.3796  166.8106 F       1  UNL1       -0.2041
     25 H         141.1945  140.0444  172.3937 H       1  UNL1        0.1424
     26 H         139.5695  140.4287  172.0483 H       1  UNL1        0.1424
     27 C         142.7304  137.7459  157.9058 C.3     1  UNL1        0.1518
     28 N         143.6449  138.1077  156.7732 N.3     1  UNL1       -0.3134
     29 H         143.3627  139.0065  156.3821 H       1  UNL1        0.1193
     30 H         143.5909  137.3903  156.0501 H       1  UNL1        0.1193
     31 C         143.2400  143.1605  163.5666 C.3     1  UNL1        0.0885
     32 C         144.1104  144.0058  164.4486 C.3     1  UNL1        0.0246
     33 C         142.8329  144.5659  163.8969 C.3     1  UNL1        0.0246
@<TRIPOS>BOND
     1     1     2    1
     2     2     3   ar
     3     3    16    1
     4    16    17   ar
     5    17    18   ar
     6    18    19    1
     7    18    20   ar
     8    20    21    1
     9    20    22   ar
    10    22    23   ar
    11    23    24    1
    12     3     4   ar
    13     4     5   ar
    14     5     6   ar
    15     6     7   ar
    16     7     8   ar
    17     8     9   ar
    18     9    27    1
    19    27    28    1
    20     9    10   ar
    21    10    11   ar
    22    11    12   ar
    23    12    13    2
    24    12    14   ar
    25    14    31    1
    26    31    32    1
    27    32    33    1
    28    14    15   ar
    29    15     2   ar
    30    23    16   ar
    31    15     6   ar
    32    11     7   ar
    33    33    31    1
    34    21    25    1
    35    21    26    1
    36    28    29    1
    37    28    30    1
@<TRIPOS>MOLECULE
*****
 33 37 0 0 0
SMALL
GASTEIGER

@<TRIPOS>ATOM
      1 C         139.4798  142.3116  165.5484 C.3     1  UNL1        0.0325
      2 C         139.7482  141.0029  164.8664 C.ar    1  UNL1       -0.0058
      3 C         140.1196  139.7968  165.6773 C.ar    1  UNL1       -0.0003
      4 C         140.3880  138.4881  164.9953 C.ar    1  UNL1       -0.0000
      5 C         140.2852  138.3853  163.5024 C.ar    1  UNL1        0.0045
      6 C         139.9138  139.5913  162.6914 C.ar    1  UNL1        0.0518
      7 C         139.8109  139.4886  161.1985 C.ar    1  UNL1        0.1704
      8 O         140.0166  138.3409  160.2548 O.2     1  UNL1       -0.4368
      9 C         139.7724  138.8376  158.8607 C.ar    1  UNL1        0.2217
     10 N         139.4157  140.2923  158.9427 N.ar    1  UNL1       -0.2060
     11 C         139.4396  140.6947  160.3875 C.ar    1  UNL1        0.1744
     12 C         139.1711  142.0034  161.0695 C.ar    1  UNL1        0.2816
     13 O         138.7998  143.2094  160.2586 O.2     1  UNL1       -0.2652
     14 N         139.2740  142.1061  162.5625 N.ar    1  UNL1       -0.2963
     15 C         139.6453  140.9001  163.3734 C.ar    1  UNL1        0.0614
     16 C         140.2225  139.8995  167.1702 C.ar    1  UNL1        0.0295
     17 C         138.9785  139.9191  168.0082 C.ar    1  UNL1        0.0331
     18 C         139.0815  140.0218  169.5012 C.ar    1  UNL1        0.1530
     19 F         137.8375  140.0415  170.3391 F       1  UNL1       -0.2029
     20 C         140.4284  140.1049  170.1561 C.ar    1  UNL1        0.0716
     21 N         140.5313  140.2076  171.6491 N.pl3   1  UNL1       -0.3552
     22 C         141.6723  140.0853  169.3181 C.ar    1  UNL1        0.0460
     23 C         141.5693  139.9826  167.8252 C.ar    1  UNL1        0.1414
     24 F         142.8133  139.9630  166.9873 F       1  UNL1       -0.2041
     25 H         139.7148  140.2205  172.1990 H       1  UNL1        0.1424
     26 H         141.4153  140.2621  172.0790 H       1  UNL1        0.1424
     27 C         139.8680  138.0227  157.6050 C.3     1  UNL1        0.1518
     28 N         138.9561  138.3145  156.4503 N.3     1  UNL1       -0.3134
     29 H         137.9936  138.1062  156.7161 H       1  UNL1        0.1193
     30 H         139.2213  137.7363  155.6530 H       1  UNL1        0.1193
     31 C         139.0055  143.4149  163.2444 C.3     1  UNL1        0.0885
     32 C         139.4879  144.7493  163.7307 C.3     1  UNL1        0.0246
     33 C         138.0580  144.3472  163.9393 C.3     1  UNL1        0.0246
@<TRIPOS>BOND
     1     1     2    1
     2     2     3   ar
     3     3    16    1
     4    16    17   ar
     5    17    18   ar
     6    18    19    1
     7    18    20   ar
     8    20    21    1
     9    20    22   ar
    10    22    23   ar
    11    23    24    1
    12     3     4   ar
    13     4     5   ar
    14     5     6   ar
    15     6     7   ar
    16     7     8   ar
    17     8     9   ar
    18     9    27    1
    19    27    28    1
    20     9    10   ar
    21    10    11   ar
    22    11    12   ar
    23    12    13    2
    24    12    14   ar
    25    14    31    1
    26    31    32    1
    27    32    33    1
    28    14    15   ar
    29    15     2   ar
    30    23    16   ar
    31    15     6   ar
    32    11     7   ar
    33    33    31    1
    34    21    25    1
    35    21    26    1
    36    28    29    1
    37    28    30    1
@<TRIPOS>MOLECULE
*****
 33 37 0 0 0
SMALL
GASTEIGER

@<TRIPOS>ATOM
      1 C         142.8845  140.4463  165.7151 C.3     1  UNL1        0.0325
      2 C         142.0860  141.6200  165.2305 C.ar    1  UNL1       -0.0058
      3 C         141.1179  142.3005  166.1522 C.ar    1  UNL1       -0.0003
      4 C         140.3194  143.4742  165.6676 C.ar    1  UNL1       -0.0000
      5 C         140.4891  143.9674  164.2612 C.ar    1  UNL1        0.0045
      6 C         141.4572  143.2870  163.3394 C.ar    1  UNL1        0.0518
      7 C         141.6269  143.7801  161.9330 C.ar    1  UNL1        0.1704
      8 O         140.9825  144.9057  161.1795 O.2     1  UNL1       -0.4368
      9 C         141.5523  144.9209  159.7921 C.ar    1  UNL1        0.2217
     10 N         142.5490  143.8046  159.6881 N.ar    1  UNL1       -0.2060
     11 C         142.5951  143.0996  161.0112 C.ar    1  UNL1        0.1744
     12 C         143.3935  141.9259  161.4959 C.ar    1  UNL1        0.2816
     13 O         144.3617  141.2454  160.5741 O.2     1  UNL1       -0.2652
     14 N         143.2238  141.4327  162.9023 N.ar    1  UNL1       -0.2963
     15 C         142.2557  142.1132  163.8240 C.ar    1  UNL1        0.0614
     16 C         140.9482  141.8073  167.5586 C.ar    1  UNL1        0.0295
     17 C         139.6965  141.0805  167.9526 C.ar    1  UNL1        0.0331
     18 C         139.5269  140.5873  169.3591 C.ar    1  UNL1        0.1530
     19 F         138.2753  139.8606  169.7532 F       1  UNL1       -0.2029
     20 C         140.6089  140.8209  170.3715 C.ar    1  UNL1        0.0716
     21 N         140.4392  140.3277  171.7778 N.pl3   1  UNL1       -0.3552
     22 C         141.8605  141.5477  169.9773 C.ar    1  UNL1        0.0460
     23 C         142.0301  142.0408  168.5709 C.ar    1  UNL1        0.1414
     24 F         143.2817  142.7676  168.1769 F       1  UNL1       -0.2041
     25 H         139.6177  139.8507  172.0365 H       1  UNL1        0.1424
     26 H         141.1493  140.4810  172.4423 H       1  UNL1        0.1424
     27 C         141.1893  145.8832  158.7003 C.3     1  UNL1        0.1518
     28 N         142.2148  146.2829  157.6812 N.3     1  UNL1       -0.3134
     29 H         142.9577  146.8134  158.1363 H       1  UNL1        0.1193
     30 H         141.7749  146.8601  156.9644 H       1  UNL1        0.1193
     31 C         144.0223  140.2590  163.3869 C.3     1  UNL1        0.0885
     32 C         145.2154  139.7095  164.1112 C.3     1  UNL1        0.0246
     33 C         144.2122  138.7755  163.5019 C.3     1  UNL1        0.0246
@<TRIPOS>BOND
     1     1     2    1
     2     2     3   ar
     3     3    16    1
     4    16    17   ar
     5    17    18   ar
     6    18    19    1
     7    18    20   ar
     8    20    21    1
     9    20    22   ar
    10    22    23   ar
    11    23    24    1
    12     3     4   ar
    13     4     5   ar
    14     5     6   ar
    15     6     7   ar
    16     7     8   ar
    17     8     9   ar
    18     9    27    1
    19    27    28    1
    20     9    10   ar
    21    10    11   ar
    22    11    12   ar
    23    12    13    2
    24    12    14   ar
    25    14    31    1
    26    31    32    1
    27    32    33    1
    28    14    15   ar
    29    15     2   ar
    30    23    16   ar
    31    15     6   ar
    32    11     7   ar
    33    33    31    1
    34    21    25    1
    35    21    26    1
    36    28    29    1
    37    28    30    1
@<TRIPOS>MOLECULE
*****
 33 37 0 0 0
SMALL
GASTEIGER

@<TRIPOS>ATOM
      1 C         142.5894  140.8334  165.8770 C.3     1  UNL1        0.0325
      2 C         141.3013  140.9887  165.1242 C.ar    1  UNL1       -0.0058
      3 C         140.0483  141.3740  165.8533 C.ar    1  UNL1       -0.0003
      4 C         138.7602  141.5294  165.1006 C.ar    1  UNL1       -0.0000
      5 C         138.7250  141.2994  163.6188 C.ar    1  UNL1        0.0045
      6 C         139.9780  140.9141  162.8896 C.ar    1  UNL1        0.0518
      7 C         139.9429  140.6842  161.4077 C.ar    1  UNL1        0.1704
      8 O         138.8291  140.7623  160.4061 O.2     1  UNL1       -0.4368
      9 C         139.3937  140.4252  159.0579 C.ar    1  UNL1        0.2217
     10 N         140.8565  140.1388  159.2263 N.ar    1  UNL1       -0.2060
     11 C         141.1959  140.2989  160.6786 C.ar    1  UNL1        0.1744
     12 C         142.4840  140.1435  161.4314 C.ar    1  UNL1        0.2816
     13 O         143.7370  139.7582  160.7023 O.2     1  UNL1       -0.2652
     14 N         142.5191  140.3735  162.9132 N.ar    1  UNL1       -0.2963
     15 C         141.2662  140.7587  163.6423 C.ar    1  UNL1        0.0614
     16 C         140.0834  141.6040  167.3352 C.ar    1  UNL1        0.0295
     17 C         140.4583  142.9518  167.8763 C.ar    1  UNL1        0.0331
     18 C         140.4933  143.1817  169.3582 C.ar    1  UNL1        0.1530
     19 F         140.8682  144.5295  169.8994 F       1  UNL1       -0.2029
     20 C         140.1536  142.0638  170.2989 C.ar    1  UNL1        0.0716
     21 N         140.1887  142.2937  171.7808 N.pl3   1  UNL1       -0.3552
     22 C         139.7788  140.7159  169.7577 C.ar    1  UNL1        0.0460
     23 C         139.7437  140.4861  168.2758 C.ar    1  UNL1        0.1414
     24 F         139.3689  139.1382  167.7347 F       1  UNL1       -0.2041
     25 H         140.4347  143.1783  172.1359 H       1  UNL1        0.1424
     26 H         139.9658  141.5600  172.3982 H       1  UNL1        0.1424
     27 C         138.6298  140.3822  157.7677 C.3     1  UNL1        0.1518
     28 N         138.8280  139.2394  156.8165 N.3     1  UNL1       -0.3134
     29 H         139.7798  139.2629  156.4505 H       1  UNL1        0.1193
     30 H         138.1652  139.3200  156.0454 H       1  UNL1        0.1193
     31 C         143.8073  140.2181  163.6660 C.3     1  UNL1        0.0885
     32 C         145.1178  140.7825  164.1284 C.3     1  UNL1        0.0246
     33 C         144.7278  139.3845  164.5072 C.3     1  UNL1        0.0246
@<TRIPOS>BOND
     1     1     2    1
     2     2     3   ar
     3     3    16    1
     4    16    17   ar
     5    17    18   ar
     6    18    19    1
     7    18    20   ar
     8    20    21    1
     9    20    22   ar
    10    22    23   ar
    11    23    24    1
    12     3     4   ar
    13     4     5   ar
    14     5     6   ar
    15     6     7   ar
    16     7     8   ar
    17     8     9   ar
    18     9    27    1
    19    27    28    1
    20     9    10   ar
    21    10    11   ar
    22    11    12   ar
    23    12    13    2
    24    12    14   ar
    25    14    31    1
    26    31    32    1
    27    32    33    1
    28    14    15   ar
    29    15     2   ar
    30    23    16   ar
    31    15     6   ar
    32    11     7   ar
    33    33    31    1
    34    21    25    1
    35    21    26    1
    36    28    29    1
    37    28    30    1
@<TRIPOS>MOLECULE
*****
 33 37 0 0 0
SMALL
GASTEIGER

@<TRIPOS>ATOM
      1 C         141.1028  139.5531  165.6990 C.3     1  UNL1        0.0325
      2 C         141.8901  140.6667  165.0745 C.ar    1  UNL1       -0.0058
      3 C         142.2743  141.8639  165.8924 C.ar    1  UNL1       -0.0003
      4 C         143.0617  142.9775  165.2679 C.ar    1  UNL1       -0.0000
      5 C         143.4648  142.8940  163.8256 C.ar    1  UNL1        0.0045
      6 C         143.0806  141.6967  163.0076 C.ar    1  UNL1        0.0518
      7 C         143.4836  141.6131  161.5652 C.ar    1  UNL1        0.1704
      8 O         144.2560  142.5486  160.6831 O.2     1  UNL1       -0.4368
      9 C         144.3491  141.9296  159.3199 C.ar    1  UNL1        0.2217
     10 N         143.6343  140.6114  159.3596 N.ar    1  UNL1       -0.2060
     11 C         143.0994  140.4158  160.7473 C.ar    1  UNL1        0.1744
     12 C         142.3120  139.3022  161.3718 C.ar    1  UNL1        0.2816
     13 O         141.9278  138.1050  160.5539 O.2     1  UNL1       -0.2652
     14 N         141.9090  139.3859  162.8142 N.ar    1  UNL1       -0.2963
     15 C         142.2932  140.5830  163.6320 C.ar    1  UNL1        0.0614
     16 C         141.8713  141.9476  167.3348 C.ar    1  UNL1        0.0295
     17 C         142.6429  141.1899  168.3743 C.ar    1  UNL1        0.0331
     18 C         142.2397  141.2736  169.8168 C.ar    1  UNL1        0.1530
     19 F         143.0113  140.5159  170.8563 F       1  UNL1       -0.2029
     20 C         141.0650  142.1150  170.2197 C.ar    1  UNL1        0.0716
     21 N         140.6620  142.1986  171.6620 N.pl3   1  UNL1       -0.3552
     22 C         140.2935  142.8726  169.1801 C.ar    1  UNL1        0.0460
     23 C         140.6966  142.7889  167.7377 C.ar    1  UNL1        0.1414
     24 F         139.9250  143.5466  166.6982 F       1  UNL1       -0.2041
     25 H         141.1684  141.7013  172.3443 H       1  UNL1        0.1424
     26 H         139.8910  142.7508  171.9265 H       1  UNL1        0.1424
     27 C         145.0364  142.5242  158.1266 C.3     1  UNL1        0.1518
     28 N         144.2331  143.2191  157.0675 N.3     1  UNL1       -0.3134
     29 H         143.6314  142.5423  156.5982 H       1  UNL1        0.1193
     30 H         144.8630  143.6436  156.3867 H       1  UNL1        0.1193
     31 C         141.1216  138.2722  163.4386 C.3     1  UNL1        0.0885
     32 C         139.8022  137.6327  163.7552 C.3     1  UNL1        0.0246
     33 C         141.0775  136.9827  164.2037 C.3     1  UNL1        0.0246
@<TRIPOS>BOND
     1     1     2    1
     2     2     3   ar
     3     3    16    1
     4    16    17   ar
     5    17    18   ar
     6    18    19    1
     7    18    20   ar
     8    20    21    1
     9    20    22   ar
    10    22    23   ar
    11    23    24    1
    12     3     4   ar
    13     4     5   ar
    14     5     6   ar
    15     6     7   ar
    16     7     8   ar
    17     8     9   ar
    18     9    27    1
    19    27    28    1
    20     9    10   ar
    21    10    11   ar
    22    11    12   ar
    23    12    13    2
    24    12    14   ar
    25    14    31    1
    26    31    32    1
    27    32    33    1
    28    14    15   ar
    29    15     2   ar
    30    23    16   ar
    31    15     6   ar
    32    11     7   ar
    33    33    31    1
    34    21    25    1
    35    21    26    1
    36    28    29    1
    37    28    30    1
