@<TRIPOS>MOLECULE
*****
 38 42 0 0 0
SMALL
GASTEIGER

@<TRIPOS>ATOM
      1 C         143.4188  143.8525  162.1399 C.3     1  UNL1        0.1565
      2 O         144.8958  143.9788  162.3685 O.3     1  UNL1       -0.3781
      3 C         142.1181  143.3988  161.5463 C.3     1  UNL1        0.0372
      4 C         140.8225  143.9315  162.0828 C.3     1  UNL1        0.0186
      5 C         140.8277  144.9179  163.2128 C.3     1  UNL1        0.0544
      6 C         142.1284  145.3715  163.8064 C.3     1  UNL1        0.0186
      7 C         143.4240  144.8388  163.2699 C.3     1  UNL1        0.0372
      8 H         145.3698  143.4089  161.7428 H       1  UNL1        0.2109
      9 N         143.3472  142.9459  159.7062 N.am    1  UNL1       -0.2819
     10 C         143.9266  142.9099  161.0893 C.2     1  UNL1        0.2502
     11 O         145.0138  141.9314  161.4218 O.2     1  UNL1       -0.2723
     12 H         142.6336  143.5881  159.4880 H       1  UNL1        0.1549
     13 C         141.2289  139.0445  158.9699 C.ar    1  UNL1        0.1411
     14 C         141.7367  138.1020  157.9193 C.ar    1  UNL1        0.0681
     15 C         142.9505  138.4600  157.1141 C.ar    1  UNL1        0.1607
     16 F         143.4583  137.5174  156.0635 F       1  UNL1       -0.2025
     17 C         143.6567  139.7605  157.3595 C.ar    1  UNL1        0.1100
     18 N         144.8705  140.1184  156.5543 N.ar    1  UNL1       -0.2415
     19 C         145.5766  141.4188  156.7997 C.ar    1  UNL1        0.1002
     20 C         145.0688  142.3613  157.8503 C.ar    1  UNL1        0.0353
     21 C         143.8549  142.0034  158.6555 C.ar    1  UNL1        0.0535
     22 C         143.1489  140.7030  158.4101 C.ar    1  UNL1        0.0364
     23 C         141.9350  140.3450  159.2154 C.ar    1  UNL1        0.0398
     24 C         138.7999  139.5648  159.7309 C.3     1  UNL1        0.2525
     25 O         140.0150  138.6865  159.7752 O.3     1  UNL1       -0.4714
     26 N         139.5321  145.4506  163.7494 N.3     1  UNL1       -0.2935
     27 H         138.9877  145.7647  162.9460 H       1  UNL1        0.1236
     28 C         138.6349  144.5635  164.5605 C.3     1  UNL1        0.1152
     29 C         138.5199  143.1057  164.2259 C.ar    1  UNL1        0.0782
     30 C         139.3656  142.1010  164.9506 C.ar    1  UNL1        0.0562
     31 C         139.2506  140.6432  164.6160 C.ar    1  UNL1        0.1752
     32 C         138.2900  140.1904  163.5567 C.ar    1  UNL1        0.1914
     33 C         137.4443  141.1952  162.8320 C.ar    1  UNL1        0.1384
     34 N         137.5593  142.6529  163.1666 N.ar    1  UNL1       -0.2434
     35 O         138.1750  138.7327  163.2221 O.3     1  UNL1       -0.4668
     36 C         139.0207  137.7279  163.9468 C.3     1  UNL1        0.2527
     37 C         139.9813  138.1807  165.0061 C.3     1  UNL1        0.2526
     38 O         140.0963  139.6385  165.3407 O.3     1  UNL1       -0.4683
@<TRIPOS>BOND
     1    24    25    1
     2    25    13    1
     3    13    14   ar
     4    14    15   ar
     5    15    16    1
     6    15    17   ar
     7    17    18   ar
     8    18    19   ar
     9    19    20   ar
    10    20    21   ar
    11    21     9    1
    12     9    10   am
    13    10    11    2
    14    10     1    1
    15     1     2    1
    16     1     3    1
    17     3     4    1
    18     4     5    1
    19     5    26    1
    20    26    28    1
    21    28    29    1
    22    29    30   ar
    23    30    31   ar
    24    31    32   ar
    25    32    33   ar
    26    33    34   ar
    27    32    35    1
    28    35    36    1
    29    36    37    1
    30    37    38    1
    31     5     6    1
    32     6     7    1
    33    21    22   ar
    34    22    23   ar
    35    23    13   ar
    36    22    17   ar
    37     7     1    1
    38    34    29   ar
    39    38    31    1
    40     9    12    1
    41     2     8    1
    42    26    27    1
@<TRIPOS>MOLECULE
*****
 38 42 0 0 0
SMALL
GASTEIGER

@<TRIPOS>ATOM
      1 C         138.4895  139.5674  163.3393 C.3     1  UNL1        0.1565
      2 O         138.2071  138.5220  162.3014 O.3     1  UNL1       -0.3781
      3 C         138.6901  140.9171  163.9623 C.3     1  UNL1        0.0372
      4 C         139.0282  141.0278  165.4195 C.3     1  UNL1        0.0186
      5 C         139.1658  139.7888  166.2537 C.3     1  UNL1        0.0544
      6 C         138.9653  138.4391  165.6307 C.3     1  UNL1        0.0186
      7 C         138.6271  138.3284  164.1735 C.3     1  UNL1        0.0372
      8 H         138.0307  138.9513  161.4497 H       1  UNL1        0.2109
      9 N         139.1490  140.3338  160.9461 N.am    1  UNL1       -0.2819
     10 C         138.2539  140.4434  162.1447 C.2     1  UNL1        0.2502
     11 O         137.1230  141.4289  162.1487 O.2     1  UNL1       -0.2723
     12 H         139.8912  139.6870  160.9435 H       1  UNL1        0.1549
     13 C         141.3942  144.2104  160.5205 C.ar    1  UNL1        0.1411
     14 C         141.1586  145.0863  159.3258 C.ar    1  UNL1        0.0681
     15 C         140.1745  144.6701  158.2730 C.ar    1  UNL1        0.1607
     16 F         139.9389  145.5461  157.0784 F       1  UNL1       -0.2025
     17 C         139.4261  143.3779  158.4149 C.ar    1  UNL1        0.1100
     18 N         138.4420  142.9617  157.3621 N.ar    1  UNL1       -0.2415
     19 C         137.6936  141.6695  157.5040 C.ar    1  UNL1        0.1002
     20 C         137.9293  140.7936  158.6987 C.ar    1  UNL1        0.0353
     21 C         138.9134  141.2098  159.7514 C.ar    1  UNL1        0.0535
     22 C         139.6617  142.5019  159.6095 C.ar    1  UNL1        0.0364
     23 C         140.6459  142.9182  160.6623 C.ar    1  UNL1        0.0398
     24 C         141.8952  145.0216  162.9373 C.3     1  UNL1        0.2525
     25 O         142.3784  144.6267  161.5733 O.3     1  UNL1       -0.4714
     26 N         139.5040  139.8994  167.7109 N.3     1  UNL1       -0.2935
     27 H         139.1316  139.0648  168.1638 H       1  UNL1        0.1236
     28 C         140.9355  140.0234  168.1413 C.3     1  UNL1        0.1152
     29 C         142.0259  140.0777  167.1126 C.ar    1  UNL1        0.0782
     30 C         142.4400  141.3954  166.5275 C.ar    1  UNL1        0.0562
     31 C         143.5304  141.4497  165.4988 C.ar    1  UNL1        0.1752
     32 C         144.2066  140.1864  165.0554 C.ar    1  UNL1        0.1914
     33 C         143.7926  138.8688  165.6405 C.ar    1  UNL1        0.1384
     34 N         142.7022  138.8144  166.6692 N.ar    1  UNL1       -0.2434
     35 O         145.2970  140.2407  164.0267 O.3     1  UNL1       -0.4668
     36 C         145.7110  141.5584  163.4415 C.3     1  UNL1        0.2527
     37 C         145.0348  142.8217  163.8850 C.3     1  UNL1        0.2526
     38 O         143.9444  142.7674  164.9137 O.3     1  UNL1       -0.4683
@<TRIPOS>BOND
     1    24    25    1
     2    25    13    1
     3    13    14   ar
     4    14    15   ar
     5    15    16    1
     6    15    17   ar
     7    17    18   ar
     8    18    19   ar
     9    19    20   ar
    10    20    21   ar
    11    21     9    1
    12     9    10   am
    13    10    11    2
    14    10     1    1
    15     1     2    1
    16     1     3    1
    17     3     4    1
    18     4     5    1
    19     5    26    1
    20    26    28    1
    21    28    29    1
    22    29    30   ar
    23    30    31   ar
    24    31    32   ar
    25    32    33   ar
    26    33    34   ar
    27    32    35    1
    28    35    36    1
    29    36    37    1
    30    37    38    1
    31     5     6    1
    32     6     7    1
    33    21    22   ar
    34    22    23   ar
    35    23    13   ar
    36    22    17   ar
    37     7     1    1
    38    34    29   ar
    39    38    31    1
    40     9    12    1
    41     2     8    1
    42    26    27    1
@<TRIPOS>MOLECULE
*****
 38 42 0 0 0
SMALL
GASTEIGER

@<TRIPOS>ATOM
      1 C         141.8950  144.6674  161.5956 C.3     1  UNL1        0.1565
      2 O         141.0364  145.7641  162.1523 O.3     1  UNL1       -0.3781
      3 C         142.4194  143.6331  160.6440 C.3     1  UNL1        0.0372
      4 C         143.6079  142.7998  161.0224 C.3     1  UNL1        0.0186
      5 C         144.2720  143.0008  162.3523 C.3     1  UNL1        0.0544
      6 C         143.7476  144.0350  163.3038 C.3     1  UNL1        0.0186
      7 C         142.5591  144.8683  162.9254 C.3     1  UNL1        0.0372
      8 H         140.3479  145.9940  161.5089 H       1  UNL1        0.2109
      9 N         141.2801  144.3328  159.0936 N.am    1  UNL1       -0.2819
     10 C         140.9327  144.8473  160.4591 C.2     1  UNL1        0.2502
     11 O         139.6230  145.5418  160.6881 O.2     1  UNL1       -0.2723
     12 H         142.1397  143.8770  158.9433 H       1  UNL1        0.1549
     13 C         138.2445  141.1366  158.1883 C.ar    1  UNL1        0.1411
     14 C         137.2822  141.3166  157.0518 C.ar    1  UNL1        0.0681
     15 C         137.3318  142.5618  156.2171 C.ar    1  UNL1        0.1607
     16 F         136.3695  142.7417  155.0806 F       1  UNL1       -0.2025
     17 C         138.3437  143.6273  156.5188 C.ar    1  UNL1        0.1100
     18 N         138.3933  144.8725  155.6841 N.ar    1  UNL1       -0.2415
     19 C         139.4051  145.9379  155.9859 C.ar    1  UNL1        0.1002
     20 C         140.3674  145.7580  157.1224 C.ar    1  UNL1        0.0353
     21 C         140.3178  144.5127  157.9571 C.ar    1  UNL1        0.0535
     22 C         139.3060  143.4473  157.6553 C.ar    1  UNL1        0.0364
     23 C         139.2564  142.2020  158.4901 C.ar    1  UNL1        0.0398
     24 C         137.7009  139.9560  160.4379 C.3     1  UNL1        0.2525
     25 O         138.1949  139.8913  159.0230 O.3     1  UNL1       -0.4714
     26 N         145.4605  142.1675  162.7306 N.3     1  UNL1       -0.2935
     27 H         146.0785  142.7672  163.2774 H       1  UNL1        0.1236
     28 C         145.2714  140.9062  163.5201 C.3     1  UNL1        0.1152
     29 C         144.0943  140.0182  163.2442 C.ar    1  UNL1        0.0782
     30 C         142.8029  140.2359  163.9755 C.ar    1  UNL1        0.0562
     31 C         141.6258  139.3479  163.6997 C.ar    1  UNL1        0.1752
     32 C         141.7403  138.2422  162.6926 C.ar    1  UNL1        0.1914
     33 C         143.0317  138.0245  161.9613 C.ar    1  UNL1        0.1384
     34 N         144.2088  138.9125  162.2371 N.ar    1  UNL1       -0.2434
     35 O         140.5632  137.3542  162.4168 O.3     1  UNL1       -0.4668
     36 C         139.2718  137.5720  163.1481 C.3     1  UNL1        0.2527
     37 C         139.1573  138.6777  164.1552 C.3     1  UNL1        0.2526
     38 O         140.3344  139.5657  164.4310 O.3     1  UNL1       -0.4683
@<TRIPOS>BOND
     1    24    25    1
     2    25    13    1
     3    13    14   ar
     4    14    15   ar
     5    15    16    1
     6    15    17   ar
     7    17    18   ar
     8    18    19   ar
     9    19    20   ar
    10    20    21   ar
    11    21     9    1
    12     9    10   am
    13    10    11    2
    14    10     1    1
    15     1     2    1
    16     1     3    1
    17     3     4    1
    18     4     5    1
    19     5    26    1
    20    26    28    1
    21    28    29    1
    22    29    30   ar
    23    30    31   ar
    24    31    32   ar
    25    32    33   ar
    26    33    34   ar
    27    32    35    1
    28    35    36    1
    29    36    37    1
    30    37    38    1
    31     5     6    1
    32     6     7    1
    33    21    22   ar
    34    22    23   ar
    35    23    13   ar
    36    22    17   ar
    37     7     1    1
    38    34    29   ar
    39    38    31    1
    40     9    12    1
    41     2     8    1
    42    26    27    1
@<TRIPOS>MOLECULE
*****
 38 42 0 0 0
SMALL
GASTEIGER

@<TRIPOS>ATOM
      1 C         143.0649  138.9169  160.7457 C.3     1  UNL1        0.1565
      2 O         142.7312  137.5481  161.2607 O.3     1  UNL1       -0.3781
      3 C         143.1236  140.1020  159.8281 C.3     1  UNL1        0.0372
      4 C         143.8583  141.3404  160.2486 C.3     1  UNL1        0.0186
      5 C         144.5343  141.3936  161.5865 C.3     1  UNL1        0.0544
      6 C         144.4757  140.2084  162.5041 C.3     1  UNL1        0.0186
      7 C         143.7409  138.9700  162.0837 C.3     1  UNL1        0.0372
      8 H         142.2049  137.0730  160.5988 H       1  UNL1        0.2109
      9 N         142.9721  137.9855  158.3221 N.am    1  UNL1       -0.2819
     10 C         142.2730  138.3883  159.5866 C.2     1  UNL1        0.2502
     11 O         140.7820  138.2627  159.6921 O.2     1  UNL1       -0.2723
     12 H         143.9507  138.0679  158.2530 H       1  UNL1        0.1549
     13 C         143.4597  133.7026  157.0301 C.ar    1  UNL1        0.1411
     14 C         142.6678  133.1741  155.8710 C.ar    1  UNL1        0.0681
     15 C         141.7133  134.0731  155.1426 C.ar    1  UNL1        0.1607
     16 F         140.9214  133.5446  153.9835 F       1  UNL1       -0.2025
     17 C         141.5508  135.5008  155.5733 C.ar    1  UNL1        0.1100
     18 N         140.5963  136.3999  154.8448 N.ar    1  UNL1       -0.2415
     19 C         140.4338  137.8275  155.2755 C.ar    1  UNL1        0.1002
     20 C         141.2257  138.3560  156.4346 C.ar    1  UNL1        0.0353
     21 C         142.1801  137.4569  157.1630 C.ar    1  UNL1        0.0535
     22 C         142.3427  136.0293  156.7324 C.ar    1  UNL1        0.0364
     23 C         143.2972  135.1302  157.4608 C.ar    1  UNL1        0.0398
     24 C         145.1937  131.7680  157.0035 C.3     1  UNL1        0.2525
     25 O         144.4142  132.8035  157.7586 O.3     1  UNL1       -0.4714
     26 N         145.2690  142.6319  162.0069 N.3     1  UNL1       -0.2935
     27 H         145.7681  142.9716  161.1848 H       1  UNL1        0.1236
     28 C         144.5118  143.7995  162.5669 C.3     1  UNL1        0.1152
     29 C         143.0229  143.8768  162.4015 C.ar    1  UNL1        0.0782
     30 C         142.1206  143.3333  163.4694 C.ar    1  UNL1        0.0562
     31 C         140.6317  143.4106  163.3041 C.ar    1  UNL1        0.1752
     32 C         140.0453  144.0313  162.0708 C.ar    1  UNL1        0.1914
     33 C         140.9477  144.5748  161.0029 C.ar    1  UNL1        0.1384
     34 N         142.4366  144.4975  161.1683 N.ar    1  UNL1       -0.2434
     35 O         138.5564  144.1086  161.9055 O.3     1  UNL1       -0.4668
     36 C         137.6540  143.5652  162.9734 C.3     1  UNL1        0.2527
     37 C         138.2404  142.9445  164.2066 C.3     1  UNL1        0.2526
     38 O         139.7293  142.8672  164.3719 O.3     1  UNL1       -0.4683
@<TRIPOS>BOND
     1    24    25    1
     2    25    13    1
     3    13    14   ar
     4    14    15   ar
     5    15    16    1
     6    15    17   ar
     7    17    18   ar
     8    18    19   ar
     9    19    20   ar
    10    20    21   ar
    11    21     9    1
    12     9    10   am
    13    10    11    2
    14    10     1    1
    15     1     2    1
    16     1     3    1
    17     3     4    1
    18     4     5    1
    19     5    26    1
    20    26    28    1
    21    28    29    1
    22    29    30   ar
    23    30    31   ar
    24    31    32   ar
    25    32    33   ar
    26    33    34   ar
    27    32    35    1
    28    35    36    1
    29    36    37    1
    30    37    38    1
    31     5     6    1
    32     6     7    1
    33    21    22   ar
    34    22    23   ar
    35    23    13   ar
    36    22    17   ar
    37     7     1    1
    38    34    29   ar
    39    38    31    1
    40     9    12    1
    41     2     8    1
    42    26    27    1
@<TRIPOS>MOLECULE
*****
 38 42 0 0 0
SMALL
GASTEIGER

@<TRIPOS>ATOM
      1 C         142.7654  139.1066  163.7663 C.3     1  UNL1        0.1565
      2 O         144.2554  139.2263  163.8918 O.3     1  UNL1       -0.3781
      3 C         141.3116  139.1558  164.1323 C.3     1  UNL1        0.0372
      4 C         140.2712  138.7602  163.1267 C.3     1  UNL1        0.0186
      5 C         140.6847  138.3154  161.7552 C.3     1  UNL1        0.0544
      6 C         142.1385  138.2662  161.3892 C.3     1  UNL1        0.0186
      7 C         143.1789  138.6618  162.3948 C.3     1  UNL1        0.0372
      8 H         144.4807  139.5403  164.7815 H       1  UNL1        0.2109
      9 N         142.1874  140.8651  165.5894 N.am    1  UNL1       -0.2819
     10 C         142.8694  139.5929  165.1815 C.2     1  UNL1        0.2502
     11 O         143.6554  138.8070  166.1888 O.2     1  UNL1       -0.2723
     12 H         141.6715  141.3809  164.9282 H       1  UNL1        0.1549
     13 C         138.9754  139.8297  168.5661 C.ar    1  UNL1        0.1411
     14 C         139.0793  140.3160  169.9812 C.ar    1  UNL1        0.0681
     15 C         140.2539  141.1475  170.4041 C.ar    1  UNL1        0.1607
     16 F         140.3579  141.6338  171.8193 F       1  UNL1       -0.2025
     17 C         141.3247  141.4926  169.4119 C.ar    1  UNL1        0.1100
     18 N         142.4993  142.3241  169.8348 N.ar    1  UNL1       -0.2415
     19 C         143.5699  142.6692  168.8426 C.ar    1  UNL1        0.1002
     20 C         143.4660  142.1829  167.4274 C.ar    1  UNL1        0.0353
     21 C         142.2914  141.3514  167.0045 C.ar    1  UNL1        0.0535
     22 C         141.2207  141.0063  167.9967 C.ar    1  UNL1        0.0364
     23 C         140.0460  140.1748  167.5738 C.ar    1  UNL1        0.0398
     24 C         137.7793  138.3674  166.7824 C.3     1  UNL1        0.2525
     25 O         137.8007  138.9982  168.1431 O.3     1  UNL1       -0.4714
     26 N         139.6443  137.9199  160.7496 N.3     1  UNL1       -0.2935
     27 H         138.9768  137.3217  161.2363 H       1  UNL1        0.1236
     28 C         138.8455  138.9743  160.0425 C.3     1  UNL1        0.1152
     29 C         138.8894  140.3953  160.5210 C.ar    1  UNL1        0.0782
     30 C         139.9364  141.3318  159.9950 C.ar    1  UNL1        0.0562
     31 C         139.9804  142.7528  160.4735 C.ar    1  UNL1        0.1752
     32 C         138.9772  143.2372  161.4780 C.ar    1  UNL1        0.1914
     33 C         137.9302  142.3007  162.0041 C.ar    1  UNL1        0.1384
     34 N         137.8863  140.8797  161.5256 N.ar    1  UNL1       -0.2434
     35 O         139.0211  144.6581  161.9566 O.3     1  UNL1       -0.4668
     36 C         140.0682  145.5946  161.4305 C.3     1  UNL1        0.2527
     37 C         141.0713  145.1103  160.4260 C.3     1  UNL1        0.2526
     38 O         141.0274  143.6893  159.9475 O.3     1  UNL1       -0.4683
@<TRIPOS>BOND
     1    24    25    1
     2    25    13    1
     3    13    14   ar
     4    14    15   ar
     5    15    16    1
     6    15    17   ar
     7    17    18   ar
     8    18    19   ar
     9    19    20   ar
    10    20    21   ar
    11    21     9    1
    12     9    10   am
    13    10    11    2
    14    10     1    1
    15     1     2    1
    16     1     3    1
    17     3     4    1
    18     4     5    1
    19     5    26    1
    20    26    28    1
    21    28    29    1
    22    29    30   ar
    23    30    31   ar
    24    31    32   ar
    25    32    33   ar
    26    33    34   ar
    27    32    35    1
    28    35    36    1
    29    36    37    1
    30    37    38    1
    31     5     6    1
    32     6     7    1
    33    21    22   ar
    34    22    23   ar
    35    23    13   ar
    36    22    17   ar
    37     7     1    1
    38    34    29   ar
    39    38    31    1
    40     9    12    1
    41     2     8    1
    42    26    27    1
@<TRIPOS>MOLECULE
*****
 38 42 0 0 0
SMALL
GASTEIGER

@<TRIPOS>ATOM
      1 C         140.7750  138.2982  162.1207 C.3     1  UNL1        0.1565
      2 O         139.4689  137.5645  162.0455 O.3     1  UNL1       -0.3781
      3 C         141.9519  139.0254  162.7006 C.3     1  UNL1        0.0372
      4 C         143.0475  139.5165  161.8014 C.3     1  UNL1        0.0186
      5 C         142.9663  139.2803  160.3224 C.3     1  UNL1        0.0544
      6 C         141.7895  138.5531  159.7425 C.3     1  UNL1        0.0186
      7 C         140.6938  138.0621  160.6417 C.3     1  UNL1        0.0372
      8 H         139.0972  137.4737  162.9368 H       1  UNL1        0.2109
      9 N         139.5875  139.3973  164.1534 N.am    1  UNL1       -0.2819
     10 C         140.4026  138.2796  163.5737 C.2     1  UNL1        0.2502
     11 O         140.8454  137.1431  164.4469 O.2     1  UNL1       -0.2723
     12 H         139.2969  140.1432  163.5803 H       1  UNL1        0.1549
     13 C         142.0744  141.6620  167.1428 C.ar    1  UNL1        0.1411
     14 C         141.7020  141.6434  168.5957 C.ar    1  UNL1        0.0681
     15 C         140.5007  140.8699  169.0521 C.ar    1  UNL1        0.1607
     16 F         140.1283  140.8512  170.5051 F       1  UNL1       -0.2025
     17 C         139.6716  140.1149  168.0557 C.ar    1  UNL1        0.1100
     18 N         138.4703  139.3414  168.5121 N.ar    1  UNL1       -0.2415
     19 C         137.6414  138.5865  167.5157 C.ar    1  UNL1        0.1002
     20 C         138.0138  138.6052  166.0628 C.ar    1  UNL1        0.0353
     21 C         139.2151  139.3787  165.6063 C.ar    1  UNL1        0.0535
     22 C         140.0440  140.1336  166.6027 C.ar    1  UNL1        0.0364
     23 C         141.2455  140.9071  166.1463 C.ar    1  UNL1        0.0398
     24 C         143.5378  142.6183  165.2207 C.3     1  UNL1        0.2525
     25 O         143.2758  142.4356  166.6863 O.3     1  UNL1       -0.4714
     26 N         144.0619  139.7714  159.4232 N.3     1  UNL1       -0.2935
     27 H         144.0417  139.1863  158.5879 H       1  UNL1        0.1236
     28 C         144.0650  141.1961  158.9540 C.3     1  UNL1        0.1152
     29 C         142.9545  142.1207  159.3563 C.ar    1  UNL1        0.0782
     30 C         143.0793  142.9446  160.6035 C.ar    1  UNL1        0.0562
     31 C         141.9687  143.8692  161.0058 C.ar    1  UNL1        0.1752
     32 C         140.7334  143.9697  160.1609 C.ar    1  UNL1        0.1914
     33 C         140.6085  143.1457  158.9138 C.ar    1  UNL1        0.1384
     34 N         141.7191  142.2212  158.5114 N.ar    1  UNL1       -0.2434
     35 O         139.6228  144.8943  160.5633 O.3     1  UNL1       -0.4668
     36 C         139.7476  145.7183  161.8105 C.3     1  UNL1        0.2527
     37 C         140.9829  145.6178  162.6554 C.3     1  UNL1        0.2526
     38 O         142.0935  144.6932  162.2530 O.3     1  UNL1       -0.4683
@<TRIPOS>BOND
     1    24    25    1
     2    25    13    1
     3    13    14   ar
     4    14    15   ar
     5    15    16    1
     6    15    17   ar
     7    17    18   ar
     8    18    19   ar
     9    19    20   ar
    10    20    21   ar
    11    21     9    1
    12     9    10   am
    13    10    11    2
    14    10     1    1
    15     1     2    1
    16     1     3    1
    17     3     4    1
    18     4     5    1
    19     5    26    1
    20    26    28    1
    21    28    29    1
    22    29    30   ar
    23    30    31   ar
    24    31    32   ar
    25    32    33   ar
    26    33    34   ar
    27    32    35    1
    28    35    36    1
    29    36    37    1
    30    37    38    1
    31     5     6    1
    32     6     7    1
    33    21    22   ar
    34    22    23   ar
    35    23    13   ar
    36    22    17   ar
    37     7     1    1
    38    34    29   ar
    39    38    31    1
    40     9    12    1
    41     2     8    1
    42    26    27    1
@<TRIPOS>MOLECULE
*****
 38 42 0 0 0
SMALL
GASTEIGER

@<TRIPOS>ATOM
      1 C         140.0450  138.4562  161.1900 C.3     1  UNL1        0.1565
      2 O         138.5871  138.7569  161.3747 O.3     1  UNL1       -0.3781
      3 C         141.4725  138.1405  161.5252 C.3     1  UNL1        0.0372
      4 C         142.4812  137.9726  160.4276 C.3     1  UNL1        0.0186
      5 C         142.0622  138.1205  158.9950 C.3     1  UNL1        0.0544
      6 C         140.6346  138.4362  158.6598 C.3     1  UNL1        0.0186
      7 C         139.6260  138.6041  159.7574 C.3     1  UNL1        0.0372
      8 H         138.3755  138.7625  162.3214 H       1  UNL1        0.2109
      9 N         139.4137  139.5899  163.4409 N.am    1  UNL1       -0.2819
     10 C         139.9576  138.4128  162.6869 C.2     1  UNL1        0.2502
     11 O         140.4143  137.1922  163.4297 O.2     1  UNL1       -0.2723
     12 H         139.1140  140.3910  162.9533 H       1  UNL1        0.1549
     13 C         142.7613  141.2633  165.9395 C.ar    1  UNL1        0.1411
     14 C         142.6740  141.2199  167.4363 C.ar    1  UNL1        0.0681
     15 C         141.4708  140.6187  168.1003 C.ar    1  UNL1        0.1607
     16 F         141.3835  140.5753  169.5971 F       1  UNL1       -0.2025
     17 C         140.3549  140.0608  167.2674 C.ar    1  UNL1        0.1100
     18 N         139.1517  139.4596  167.9313 N.ar    1  UNL1       -0.2415
     19 C         138.0359  138.9018  167.0985 C.ar    1  UNL1        0.1002
     20 C         138.1232  138.9452  165.6016 C.ar    1  UNL1        0.0353
     21 C         139.3264  139.5465  164.9377 C.ar    1  UNL1        0.0535
     22 C         140.4422  140.1043  165.7706 C.ar    1  UNL1        0.0364
     23 C         141.6455  140.7055  165.1066 C.ar    1  UNL1        0.0398
     24 C         143.9128  143.2735  164.7632 C.3     1  UNL1        0.2525
     25 O         143.9645  141.8646  165.2755 O.3     1  UNL1       -0.4714
     26 N         143.0708  137.9526  157.8974 N.3     1  UNL1       -0.2935
     27 H         143.8594  137.4442  158.2975 H       1  UNL1        0.1236
     28 C         142.6920  137.2391  156.6335 C.3     1  UNL1        0.1152
     29 C         142.6808  135.7397  156.5932 C.ar    1  UNL1        0.0782
     30 C         141.8549  135.0232  155.5663 C.ar    1  UNL1        0.0562
     31 C         141.8436  133.5238  155.5260 C.ar    1  UNL1        0.1752
     32 C         142.6583  132.7409  156.5126 C.ar    1  UNL1        0.1914
     33 C         143.4842  133.4574  157.5395 C.ar    1  UNL1        0.1384
     34 N         143.4954  134.9568  157.5798 N.ar    1  UNL1       -0.2434
     35 O         142.6471  131.2415  156.4723 O.3     1  UNL1       -0.4668
     36 C         141.8212  130.5250  155.4453 C.3     1  UNL1        0.2527
     37 C         141.0065  131.3078  154.4587 C.3     1  UNL1        0.2526
     38 O         141.0177  132.8073  154.4990 O.3     1  UNL1       -0.4683
@<TRIPOS>BOND
     1    24    25    1
     2    25    13    1
     3    13    14   ar
     4    14    15   ar
     5    15    16    1
     6    15    17   ar
     7    17    18   ar
     8    18    19   ar
     9    19    20   ar
    10    20    21   ar
    11    21     9    1
    12     9    10   am
    13    10    11    2
    14    10     1    1
    15     1     2    1
    16     1     3    1
    17     3     4    1
    18     4     5    1
    19     5    26    1
    20    26    28    1
    21    28    29    1
    22    29    30   ar
    23    30    31   ar
    24    31    32   ar
    25    32    33   ar
    26    33    34   ar
    27    32    35    1
    28    35    36    1
    29    36    37    1
    30    37    38    1
    31     5     6    1
    32     6     7    1
    33    21    22   ar
    34    22    23   ar
    35    23    13   ar
    36    22    17   ar
    37     7     1    1
    38    34    29   ar
    39    38    31    1
    40     9    12    1
    41     2     8    1
    42    26    27    1
@<TRIPOS>MOLECULE
*****
 38 42 0 0 0
SMALL
GASTEIGER

@<TRIPOS>ATOM
      1 C         143.3784  143.8443  162.1467 C.3     1  UNL1        0.1565
      2 O         144.8475  144.1414  162.2074 O.3     1  UNL1       -0.3781
      3 C         142.0839  143.2152  161.7242 C.3     1  UNL1        0.0372
      4 C         140.7972  143.6451  162.3643 C.3     1  UNL1        0.0186
      5 C         140.8050  144.7038  163.4267 C.3     1  UNL1        0.0544
      6 C         142.0995  145.3329  163.8492 C.3     1  UNL1        0.0186
      7 C         143.3863  144.9030  163.2091 C.3     1  UNL1        0.0372
      8 H         145.3171  143.5818  161.5693 H       1  UNL1        0.2109
      9 N         143.3507  142.9599  159.7039 N.am    1  UNL1       -0.2819
     10 C         143.8808  142.8886  161.1053 C.2     1  UNL1        0.2502
     11 O         144.9132  141.8617  161.4654 O.2     1  UNL1       -0.2723
     12 H         142.6731  143.6339  159.4676 H       1  UNL1        0.1549
     13 C         141.2409  139.0407  159.0418 C.ar    1  UNL1        0.1411
     14 C         141.7433  138.0850  158.0005 C.ar    1  UNL1        0.0681
     15 C         142.9488  138.4358  157.1798 C.ar    1  UNL1        0.1607
     16 F         143.4511  137.4802  156.1384 F       1  UNL1       -0.2025
     17 C         143.6521  139.7422  157.4005 C.ar    1  UNL1        0.1100
     18 N         144.8577  140.0930  156.5798 N.ar    1  UNL1       -0.2415
     19 C         145.5609  141.3994  156.8005 C.ar    1  UNL1        0.1002
     20 C         145.0586  142.3550  157.8419 C.ar    1  UNL1        0.0353
     21 C         143.8530  142.0043  158.6625 C.ar    1  UNL1        0.0535
     22 C         143.1498  140.6979  158.4418 C.ar    1  UNL1        0.0364
     23 C         141.9442  140.3471  159.2625 C.ar    1  UNL1        0.0398
     24 C         139.9943  139.0367  161.3213 C.3     1  UNL1        0.2525
     25 O         140.0353  138.6899  159.8625 O.3     1  UNL1       -0.4714
     26 N         139.5183  145.1337  164.0668 N.3     1  UNL1       -0.2935
     27 H         138.9025  145.4397  163.3134 H       1  UNL1        0.1236
     28 C         138.7342  144.1634  164.8997 C.3     1  UNL1        0.1152
     29 C         139.4191  142.9800  165.5165 C.ar    1  UNL1        0.0782
     30 C         140.3739  143.1762  166.6567 C.ar    1  UNL1        0.0562
     31 C         141.0589  141.9928  167.2735 C.ar    1  UNL1        0.1752
     32 C         140.7890  140.6132  166.7501 C.ar    1  UNL1        0.1914
     33 C         139.8342  140.4170  165.6099 C.ar    1  UNL1        0.1384
     34 N         139.1492  141.6004  164.9931 N.ar    1  UNL1       -0.2434
     35 O         141.4739  139.4298  167.3669 O.3     1  UNL1       -0.4668
     36 C         142.4287  139.6260  168.5070 C.3     1  UNL1        0.2527
     37 C         142.6986  141.0056  169.0304 C.3     1  UNL1        0.2526
     38 O         142.0136  142.1890  168.4136 O.3     1  UNL1       -0.4683
@<TRIPOS>BOND
     1    24    25    1
     2    25    13    1
     3    13    14   ar
     4    14    15   ar
     5    15    16    1
     6    15    17   ar
     7    17    18   ar
     8    18    19   ar
     9    19    20   ar
    10    20    21   ar
    11    21     9    1
    12     9    10   am
    13    10    11    2
    14    10     1    1
    15     1     2    1
    16     1     3    1
    17     3     4    1
    18     4     5    1
    19     5    26    1
    20    26    28    1
    21    28    29    1
    22    29    30   ar
    23    30    31   ar
    24    31    32   ar
    25    32    33   ar
    26    33    34   ar
    27    32    35    1
    28    35    36    1
    29    36    37    1
    30    37    38    1
    31     5     6    1
    32     6     7    1
    33    21    22   ar
    34    22    23   ar
    35    23    13   ar
    36    22    17   ar
    37     7     1    1
    38    34    29   ar
    39    38    31    1
    40     9    12    1
    41     2     8    1
    42    26    27    1
@<TRIPOS>MOLECULE
*****
 38 42 0 0 0
SMALL
GASTEIGER

@<TRIPOS>ATOM
      1 C         142.7676  138.5167  162.9525 C.3     1  UNL1        0.1565
      2 O         143.6242  138.8394  164.1409 O.3     1  UNL1       -0.3781
      3 C         141.5640  138.1264  162.1469 C.3     1  UNL1        0.0372
      4 C         141.6570  138.0429  160.6520 C.3     1  UNL1        0.0186
      5 C         142.9535  138.3497  159.9629 C.3     1  UNL1        0.0544
      6 C         144.1571  138.7400  160.7686 C.3     1  UNL1        0.0186
      7 C         144.0641  138.8235  162.2634 C.3     1  UNL1        0.0372
      8 H         143.0982  138.7537  164.9514 H       1  UNL1        0.2109
      9 N         140.9751  139.4891  164.5622 N.am    1  UNL1       -0.2819
     10 C         141.7685  138.3219  164.0543 C.2     1  UNL1        0.2502
     11 O         141.5630  136.9599  164.6482 O.2     1  UNL1       -0.2723
     12 H         141.1100  140.3831  164.1724 H       1  UNL1        0.1549
     13 C         141.5144  141.6169  168.4905 C.ar    1  UNL1        0.1411
     14 C         140.5154  141.4222  169.5923 C.ar    1  UNL1        0.0681
     15 C         139.3366  140.5182  169.3847 C.ar    1  UNL1        0.1607
     16 F         138.3375  140.3235  170.4865 F       1  UNL1       -0.2025
     17 C         139.1567  139.8089  168.0752 C.ar    1  UNL1        0.1100
     18 N         137.9779  138.9049  167.8676 N.ar    1  UNL1       -0.2415
     19 C         137.7982  138.1957  166.5582 C.ar    1  UNL1        0.1002
     20 C         138.7972  138.3904  165.4564 C.ar    1  UNL1        0.0353
     21 C         139.9760  139.2944  165.6640 C.ar    1  UNL1        0.0535
     22 C         140.1558  140.0036  166.9734 C.ar    1  UNL1        0.0364
     23 C         141.3347  140.9077  167.1811 C.ar    1  UNL1        0.0398
     24 C         143.6854  142.2225  169.7829 C.3     1  UNL1        0.2525
     25 O         142.6933  142.5210  168.6982 O.3     1  UNL1       -0.4714
     26 N         143.0465  138.2662  158.4681 N.3     1  UNL1       -0.2935
     27 H         142.1500  137.9099  158.1368 H       1  UNL1        0.1236
     28 C         143.3467  139.4972  157.6654 C.3     1  UNL1        0.1152
     29 C         142.4471  140.6936  157.7624 C.ar    1  UNL1        0.0782
     30 C         143.0364  142.0709  157.8386 C.ar    1  UNL1        0.0562
     31 C         142.1367  143.2673  157.9355 C.ar    1  UNL1        0.1752
     32 C         140.6478  143.0863  157.9562 C.ar    1  UNL1        0.1914
     33 C         140.0585  141.7090  157.8800 C.ar    1  UNL1        0.1384
     34 N         140.9582  140.5126  157.7831 N.ar    1  UNL1       -0.2434
     35 O         139.7482  144.2827  158.0532 O.3     1  UNL1       -0.4668
     36 C         140.3375  145.6599  158.1294 C.3     1  UNL1        0.2527
     37 C         141.8264  145.8410  158.1087 C.3     1  UNL1        0.2526
     38 O         142.7260  144.6446  158.0117 O.3     1  UNL1       -0.4683
@<TRIPOS>BOND
     1    24    25    1
     2    25    13    1
     3    13    14   ar
     4    14    15   ar
     5    15    16    1
     6    15    17   ar
     7    17    18   ar
     8    18    19   ar
     9    19    20   ar
    10    20    21   ar
    11    21     9    1
    12     9    10   am
    13    10    11    2
    14    10     1    1
    15     1     2    1
    16     1     3    1
    17     3     4    1
    18     4     5    1
    19     5    26    1
    20    26    28    1
    21    28    29    1
    22    29    30   ar
    23    30    31   ar
    24    31    32   ar
    25    32    33   ar
    26    33    34   ar
    27    32    35    1
    28    35    36    1
    29    36    37    1
    30    37    38    1
    31     5     6    1
    32     6     7    1
    33    21    22   ar
    34    22    23   ar
    35    23    13   ar
    36    22    17   ar
    37     7     1    1
    38    34    29   ar
    39    38    31    1
    40     9    12    1
    41     2     8    1
    42    26    27    1
