@<TRIPOS>MOLECULE
*****
 33 37 0 0 0
SMALL
GASTEIGER

@<TRIPOS>ATOM
      1 C         139.1040  138.9306  159.9748 C.3     1  UNL1        0.0294
      2 C         138.0897  138.5479  161.0115 C.3     1  UNL1        0.0666
      3 S         138.5351  137.9349  162.3061 S.3     1  UNL1       -0.0756
      4 C         140.6136  137.3574  164.7547 C.3     1  UNL1        0.1340
      5 N         139.6898  138.5337  164.6412 N.ar    1  UNL1       -0.2884
      6 C         138.7344  138.7992  163.5157 C.ar    1  UNL1        0.1932
      7 N         138.0134  140.0806  163.8122 N.ar    1  UNL1       -0.1221
      8 N         138.5231  140.6072  165.1209 N.ar    1  UNL1       -0.1282
      9 C         139.5592  139.6512  165.6334 C.ar    1  UNL1        0.1670
     10 C         140.3295  139.7885  166.9132 C.ar    1  UNL1        0.0422
     11 C         141.8269  139.7023  166.9003 C.ar    1  UNL1        0.0219
     12 C         142.5971  139.8396  168.1801 C.ar    1  UNL1        0.0785
     13 N         141.8698  140.0632  169.4728 N.ar    1  UNL1       -0.2922
     14 C         142.6400  140.2005  170.7526 C.3     1  UNL1        0.1336
     15 C         140.3723  140.1495  169.4857 C.ar    1  UNL1        0.2611
     16 O         139.6451  140.3730  170.7785 O.2     1  UNL1       -0.2670
     17 C         139.6022  140.0121  168.2059 C.ar    1  UNL1        0.0638
     18 C         139.2730  140.3695  159.5860 C.3     1  UNL1        0.0731
     19 N         139.2371  141.4394  160.6367 N.3     1  UNL1       -0.2712
     20 C         138.0602  142.3069  160.9718 C.3     1  UNL1        0.0738
     21 C         138.4676  143.2334  162.0789 C.3     1  UNL1        0.0372
     22 C         137.9920  144.3421  162.9702 C.3     1  UNL1        0.0245
     23 C         139.1267  144.7325  163.8703 C.3     1  UNL1        0.0909
     24 N         140.3037  143.8650  163.5351 N.pl3   1  UNL1       -0.3077
     25 C         139.8963  142.9385  162.4280 C.3     1  UNL1        0.0901
     26 C         140.3719  141.8298  161.5366 C.3     1  UNL1        0.0921
     27 C         141.6514  143.9151  164.1917 C.ar    1  UNL1        0.0480
     28 C         142.5895  145.0468  163.8932 C.ar    1  UNL1        0.0168
     29 C         143.9372  145.0970  164.5498 C.ar    1  UNL1        0.0309
     30 C         144.3468  144.0155  165.5051 C.ar    1  UNL1        0.1402
     31 F         145.6945  144.0657  166.1617 F       1  UNL1       -0.2042
     32 C         143.4087  142.8837  165.8037 C.ar    1  UNL1        0.0309
     33 C         142.0610  142.8335  165.1470 C.ar    1  UNL1        0.0168
@<TRIPOS>BOND
     1     4     5    1
     2     5     6   ar
     3     6     3    1
     4     3     2    1
     5     2     1    1
     6     1    18    1
     7    18    19    1
     8    19    20    1
     9    20    21    1
    10    21    22    1
    11    22    23    1
    12    23    24    1
    13    24    27    1
    14    27    28   ar
    15    28    29   ar
    16    29    30   ar
    17    30    31    1
    18    30    32   ar
    19    32    33   ar
    20    24    25    1
    21    25    26    1
    22     6     7   ar
    23     7     8   ar
    24     8     9   ar
    25     9    10    1
    26    10    11   ar
    27    11    12   ar
    28    12    13   ar
    29    13    14    1
    30    13    15   ar
    31    15    16    2
    32    15    17   ar
    33     9     5   ar
    34    17    10   ar
    35    26    19    1
    36    25    21    1
    37    33    27   ar
@<TRIPOS>MOLECULE
*****
 33 37 0 0 0
SMALL
GASTEIGER

@<TRIPOS>ATOM
      1 C         140.3515  141.9726  170.3557 C.3     1  UNL1        0.0294
      2 C         141.8025  142.0270  170.7320 C.3     1  UNL1        0.0666
      3 S         142.8555  142.0107  169.6638 S.3     1  UNL1       -0.0756
      4 C         142.9304  142.1573  166.4046 C.3     1  UNL1        0.1340
      5 N         142.9934  140.9082  167.2327 N.ar    1  UNL1       -0.2884
      6 C         142.9590  140.8408  168.7307 C.ar    1  UNL1        0.1932
      7 N         143.0463  139.3980  169.1320 N.ar    1  UNL1       -0.1221
      8 N         143.1346  138.5738  167.8819 N.ar    1  UNL1       -0.1282
      9 C         143.1020  139.5071  166.7080 C.ar    1  UNL1        0.1670
     10 C         143.1666  139.1091  165.2632 C.ar    1  UNL1        0.0422
     11 C         144.3415  139.5171  164.4246 C.ar    1  UNL1        0.0219
     12 C         144.4060  139.1192  162.9798 C.ar    1  UNL1        0.0785
     13 N         143.2956  138.3132  162.3736 N.ar    1  UNL1       -0.2922
     14 C         143.3602  137.9153  160.9288 C.3     1  UNL1        0.1336
     15 C         142.1207  137.9052  163.2121 C.ar    1  UNL1        0.2611
     16 O         141.0104  137.0993  162.6058 O.2     1  UNL1       -0.2670
     17 C         142.0562  138.3032  164.6569 C.ar    1  UNL1        0.0638
     18 C         139.7630  140.7017  169.8186 C.3     1  UNL1        0.0731
     19 N         139.5143  140.5537  168.3468 N.3     1  UNL1       -0.2712
     20 C         139.1278  139.2879  167.6408 C.3     1  UNL1        0.0738
     21 C         138.9830  139.5975  166.1803 C.3     1  UNL1        0.0372
     22 C         138.6547  139.0065  164.8413 C.3     1  UNL1        0.0245
     23 C         138.7488  140.0983  163.8170 C.3     1  UNL1        0.0909
     24 N         139.1353  141.3641  164.5230 N.pl3   1  UNL1       -0.3077
     25 C         139.2801  141.0545  165.9835 C.3     1  UNL1        0.0901
     26 C         139.6084  141.6455  167.3225 C.3     1  UNL1        0.0921
     27 C         139.3409  142.7041  163.8811 C.ar    1  UNL1        0.0480
     28 C         138.1641  143.4752  163.3612 C.ar    1  UNL1        0.0168
     29 C         138.3697  144.8153  162.7193 C.ar    1  UNL1        0.0309
     30 C         139.7522  145.3842  162.5973 C.ar    1  UNL1        0.1402
     31 F         139.9579  146.7242  161.9554 F       1  UNL1       -0.2042
     32 C         140.9292  144.6131  163.1172 C.ar    1  UNL1        0.0309
     33 C         140.7236  143.2730  163.7591 C.ar    1  UNL1        0.0168
@<TRIPOS>BOND
     1     4     5    1
     2     5     6   ar
     3     6     3    1
     4     3     2    1
     5     2     1    1
     6     1    18    1
     7    18    19    1
     8    19    20    1
     9    20    21    1
    10    21    22    1
    11    22    23    1
    12    23    24    1
    13    24    27    1
    14    27    28   ar
    15    28    29   ar
    16    29    30   ar
    17    30    31    1
    18    30    32   ar
    19    32    33   ar
    20    24    25    1
    21    25    26    1
    22     6     7   ar
    23     7     8   ar
    24     8     9   ar
    25     9    10    1
    26    10    11   ar
    27    11    12   ar
    28    12    13   ar
    29    13    14    1
    30    13    15   ar
    31    15    16    2
    32    15    17   ar
    33     9     5   ar
    34    17    10   ar
    35    26    19    1
    36    25    21    1
    37    33    27   ar
@<TRIPOS>MOLECULE
*****
 33 37 0 0 0
SMALL
GASTEIGER

@<TRIPOS>ATOM
      1 C         144.8791  141.8926  162.5905 C.3     1  UNL1        0.0294
      2 C         144.7038  143.3109  162.1347 C.3     1  UNL1        0.0666
      3 S         143.6804  144.1888  162.7919 S.3     1  UNL1       -0.0756
      4 C         143.9726  143.1085  165.8574 C.3     1  UNL1        0.1340
      5 N         142.7228  143.0814  165.0283 N.ar    1  UNL1       -0.2884
      6 C         142.5885  143.5779  163.6193 C.ar    1  UNL1        0.1932
      7 N         141.1706  143.3563  163.1828 N.ar    1  UNL1       -0.1221
      8 N         140.4286  142.7228  164.3222 N.ar    1  UNL1       -0.1282
      9 C         141.3878  142.5528  165.4628 C.ar    1  UNL1        0.1670
     10 C         141.0683  141.9587  166.8025 C.ar    1  UNL1        0.0422
     11 C         141.2878  140.4949  167.0454 C.ar    1  UNL1        0.0219
     12 C         140.9682  139.9007  168.3852 C.ar    1  UNL1        0.0785
     13 N         140.4292  140.7706  169.4820 N.ar    1  UNL1       -0.2922
     14 C         140.1097  140.1764  170.8217 C.3     1  UNL1        0.1336
     15 C         140.2098  142.2344  169.2391 C.ar    1  UNL1        0.2611
     16 O         139.6708  143.1041  170.3359 O.2     1  UNL1       -0.2670
     17 C         140.5293  142.8285  167.8993 C.ar    1  UNL1        0.0638
     18 C         144.6292  140.7620  161.6370 C.3     1  UNL1        0.0731
     19 N         143.2584  140.1629  161.5267 N.3     1  UNL1       -0.2712
     20 C         142.6006  139.6929  160.2633 C.3     1  UNL1        0.0738
     21 C         141.2405  139.1682  160.6164 C.3     1  UNL1        0.0372
     22 C         139.9933  138.5534  160.0537 C.3     1  UNL1        0.0245
     23 C         139.0396  138.3192  161.1876 C.3     1  UNL1        0.0909
     24 N         139.6974  138.7894  162.4511 N.pl3   1  UNL1       -0.3077
     25 C         141.0576  139.3140  162.0980 C.3     1  UNL1        0.0901
     26 C         142.3048  139.9288  162.6607 C.3     1  UNL1        0.0921
     27 C         139.1000  138.7430  163.8262 C.ar    1  UNL1        0.0480
     28 C         139.0366  137.4436  164.5730 C.ar    1  UNL1        0.0168
     29 C         138.4392  137.3972  165.9480 C.ar    1  UNL1        0.0309
     30 C         137.9050  138.6501  166.5764 C.ar    1  UNL1        0.1402
     31 F         137.3075  138.6037  167.9515 F       1  UNL1       -0.2042
     32 C         137.9683  139.9495  165.8296 C.ar    1  UNL1        0.0309
     33 C         138.5658  139.9960  164.4545 C.ar    1  UNL1        0.0168
@<TRIPOS>BOND
     1     4     5    1
     2     5     6   ar
     3     6     3    1
     4     3     2    1
     5     2     1    1
     6     1    18    1
     7    18    19    1
     8    19    20    1
     9    20    21    1
    10    21    22    1
    11    22    23    1
    12    23    24    1
    13    24    27    1
    14    27    28   ar
    15    28    29   ar
    16    29    30   ar
    17    30    31    1
    18    30    32   ar
    19    32    33   ar
    20    24    25    1
    21    25    26    1
    22     6     7   ar
    23     7     8   ar
    24     8     9   ar
    25     9    10    1
    26    10    11   ar
    27    11    12   ar
    28    12    13   ar
    29    13    14    1
    30    13    15   ar
    31    15    16    2
    32    15    17   ar
    33     9     5   ar
    34    17    10   ar
    35    26    19    1
    36    25    21    1
    37    33    27   ar
@<TRIPOS>MOLECULE
*****
 33 37 0 0 0
SMALL
GASTEIGER

@<TRIPOS>ATOM
      1 C         142.9934  143.3200  158.4951 C.3     1  UNL1        0.0294
      2 C         143.7984  142.2370  159.1502 C.3     1  UNL1        0.0666
      3 S         144.8674  142.5919  160.1408 S.3     1  UNL1       -0.0756
      4 C         144.1407  140.2346  162.2772 C.3     1  UNL1        0.1340
      5 N         144.1813  141.7057  162.5675 N.ar    1  UNL1       -0.2884
      6 C         144.5154  142.7892  161.5855 C.ar    1  UNL1        0.1932
      7 N         144.4356  144.1047  162.3018 N.ar    1  UNL1       -0.1221
      8 N         144.0523  143.8342  163.7266 N.ar    1  UNL1       -0.1282
      9 C         143.8951  142.3515  163.8908 C.ar    1  UNL1        0.1670
     10 C         143.5180  141.6396  165.1562 C.ar    1  UNL1        0.0422
     11 C         143.1117  142.4265  166.3669 C.ar    1  UNL1        0.0219
     12 C         142.7346  141.7146  167.6322 C.ar    1  UNL1        0.0785
     13 N         142.7637  140.2158  167.6867 N.ar    1  UNL1       -0.2922
     14 C         142.3866  139.5040  168.9520 C.3     1  UNL1        0.1336
     15 C         143.1700  139.4290  166.4760 C.ar    1  UNL1        0.2611
     16 O         143.1991  137.9303  166.5306 O.2     1  UNL1       -0.2670
     17 C         143.5471  140.1409  165.2107 C.ar    1  UNL1        0.0638
     18 C         141.5666  143.5435  158.9004 C.3     1  UNL1        0.0731
     19 N         141.1973  143.5841  160.3536 N.3     1  UNL1       -0.2712
     20 C         141.2047  144.8003  161.2316 C.3     1  UNL1        0.0738
     21 C         140.7676  144.3834  162.6046 C.3     1  UNL1        0.0372
     22 C         140.5021  144.8775  163.9958 C.3     1  UNL1        0.0245
     23 C         140.0605  143.7090  164.8263 C.3     1  UNL1        0.0909
     24 N         140.0530  142.4928  163.9482 N.pl3   1  UNL1       -0.3077
     25 C         140.4901  142.9096  162.5752 C.3     1  UNL1        0.0901
     26 C         140.7556  142.4156  161.1840 C.3     1  UNL1        0.0921
     27 C         139.6750  141.1036  164.3693 C.ar    1  UNL1        0.0480
     28 C         139.2913  140.0853  163.3371 C.ar    1  UNL1        0.0168
     29 C         138.9132  138.6961  163.7582 C.ar    1  UNL1        0.0309
     30 C         138.9188  138.3253  165.2116 C.ar    1  UNL1        0.1402
     31 F         138.5407  136.9362  165.6327 F       1  UNL1       -0.2042
     32 C         139.3025  139.3437  166.2440 C.ar    1  UNL1        0.0309
     33 C         139.6806  140.7329  165.8228 C.ar    1  UNL1        0.0168
@<TRIPOS>BOND
     1     4     5    1
     2     5     6   ar
     3     6     3    1
     4     3     2    1
     5     2     1    1
     6     1    18    1
     7    18    19    1
     8    19    20    1
     9    20    21    1
    10    21    22    1
    11    22    23    1
    12    23    24    1
    13    24    27    1
    14    27    28   ar
    15    28    29   ar
    16    29    30   ar
    17    30    31    1
    18    30    32   ar
    19    32    33   ar
    20    24    25    1
    21    25    26    1
    22     6     7   ar
    23     7     8   ar
    24     8     9   ar
    25     9    10    1
    26    10    11   ar
    27    11    12   ar
    28    12    13   ar
    29    13    14    1
    30    13    15   ar
    31    15    16    2
    32    15    17   ar
    33     9     5   ar
    34    17    10   ar
    35    26    19    1
    36    25    21    1
    37    33    27   ar
@<TRIPOS>MOLECULE
*****
 33 37 0 0 0
SMALL
GASTEIGER

@<TRIPOS>ATOM
      1 C         143.2742  142.7271  159.9614 C.3     1  UNL1        0.0294
      2 C         144.3866  142.8891  160.9546 C.3     1  UNL1        0.0666
      3 S         144.8058  141.7284  161.8071 S.3     1  UNL1       -0.0756
      4 C         144.3102  142.9269  164.8017 C.3     1  UNL1        0.1340
      5 N         143.6360  141.7244  164.2106 N.ar    1  UNL1       -0.2884
      6 C         143.8638  141.1734  162.8342 C.ar    1  UNL1        0.1932
      7 N         142.9843  139.9702  162.6651 N.ar    1  UNL1       -0.1221
      8 N         142.2130  139.7774  163.9370 N.ar    1  UNL1       -0.1282
      9 C         142.6157  140.8615  164.8923 C.ar    1  UNL1        0.1670
     10 C         142.0904  141.0498  166.2846 C.ar    1  UNL1        0.0422
     11 C         141.2548  142.2510  166.6150 C.ar    1  UNL1        0.0219
     12 C         140.7295  142.4392  168.0073 C.ar    1  UNL1        0.0785
     13 N         141.0398  141.4263  169.0693 N.ar    1  UNL1       -0.2922
     14 C         140.5145  141.6145  170.4616 C.3     1  UNL1        0.1336
     15 C         141.8753  140.2251  168.7389 C.ar    1  UNL1        0.2611
     16 O         142.1855  139.2122  169.8009 O.2     1  UNL1       -0.2670
     17 C         142.4006  140.0369  167.3465 C.ar    1  UNL1        0.0638
     18 C         142.1437  143.7127  159.9339 C.3     1  UNL1        0.0731
     19 N         141.0271  143.6012  160.9293 N.3     1  UNL1       -0.2712
     20 C         140.0746  144.6950  161.3119 C.3     1  UNL1        0.0738
     21 C         139.1258  144.1461  162.3359 C.3     1  UNL1        0.0372
     22 C         137.9507  144.4829  163.2052 C.3     1  UNL1        0.0245
     23 C         137.5906  143.2581  163.9928 C.3     1  UNL1        0.0909
     24 N         138.5432  142.1644  163.6101 N.pl3   1  UNL1       -0.3077
     25 C         139.4920  142.7132  162.5861 C.3     1  UNL1        0.0901
     26 C         140.6671  142.3764  161.7168 C.3     1  UNL1        0.0921
     27 C         138.5464  140.7671  164.1558 C.ar    1  UNL1        0.0480
     28 C         138.7672  139.6032  163.2357 C.ar    1  UNL1        0.0168
     29 C         138.7704  138.2060  163.7813 C.ar    1  UNL1        0.0309
     30 C         138.5527  137.9726  165.2470 C.ar    1  UNL1        0.1402
     31 F         138.5559  136.5754  165.7926 F       1  UNL1       -0.2042
     32 C         138.3318  139.1366  166.1671 C.ar    1  UNL1        0.0309
     33 C         138.3287  140.5338  165.6215 C.ar    1  UNL1        0.0168
@<TRIPOS>BOND
     1     4     5    1
     2     5     6   ar
     3     6     3    1
     4     3     2    1
     5     2     1    1
     6     1    18    1
     7    18    19    1
     8    19    20    1
     9    20    21    1
    10    21    22    1
    11    22    23    1
    12    23    24    1
    13    24    27    1
    14    27    28   ar
    15    28    29   ar
    16    29    30   ar
    17    30    31    1
    18    30    32   ar
    19    32    33   ar
    20    24    25    1
    21    25    26    1
    22     6     7   ar
    23     7     8   ar
    24     8     9   ar
    25     9    10    1
    26    10    11   ar
    27    11    12   ar
    28    12    13   ar
    29    13    14    1
    30    13    15   ar
    31    15    16    2
    32    15    17   ar
    33     9     5   ar
    34    17    10   ar
    35    26    19    1
    36    25    21    1
    37    33    27   ar
@<TRIPOS>MOLECULE
*****
 33 37 0 0 0
SMALL
GASTEIGER

@<TRIPOS>ATOM
      1 C         140.3229  144.1477  160.1844 C.3     1  UNL1        0.0294
      2 C         140.1885  145.5216  160.7714 C.3     1  UNL1        0.0666
      3 S         139.7805  145.6880  162.2052 S.3     1  UNL1       -0.0756
      4 C         138.1826  144.1810  164.6188 C.3     1  UNL1        0.1340
      5 N         139.6617  144.1310  164.3747 N.ar    1  UNL1       -0.2884
      6 C         140.3962  144.8236  163.2653 C.ar    1  UNL1        0.1932
      7 N         141.8545  144.5002  163.4020 N.ar    1  UNL1       -0.1221
      8 N         142.0214  143.6076  164.5959 N.ar    1  UNL1       -0.1282
      9 C         140.6662  143.3794  165.1971 C.ar    1  UNL1        0.1670
     10 C         140.3678  142.5460  166.4081 C.ar    1  UNL1        0.0422
     11 C         139.8588  141.1442  166.2470 C.ar    1  UNL1        0.0219
     12 C         139.5605  140.3108  167.4579 C.ar    1  UNL1        0.0785
     13 N         139.7711  140.8793  168.8300 N.ar    1  UNL1       -0.2922
     14 C         139.4727  140.0459  170.0410 C.3     1  UNL1        0.1336
     15 C         140.2801  142.2811  168.9912 C.ar    1  UNL1        0.2611
     16 O         140.4907  142.8494  170.3632 O.2     1  UNL1       -0.2670
     17 C         140.5784  143.1144  167.7801 C.ar    1  UNL1        0.0638
     18 C         139.1435  143.2211  160.1665 C.3     1  UNL1        0.0731
     19 N         139.2053  141.9141  160.9001 N.3     1  UNL1       -0.2712
     20 C         138.1241  140.8754  160.9434 C.3     1  UNL1        0.0738
     21 C         138.6099  139.7358  161.7892 C.3     1  UNL1        0.0372
     22 C         138.2418  138.3895  162.3387 C.3     1  UNL1        0.0245
     23 C         139.3958  137.8918  163.1577 C.3     1  UNL1        0.0909
     24 N         140.4771  138.9306  163.1143 N.pl3   1  UNL1       -0.3077
     25 C         139.9913  140.0702  162.2685 C.3     1  UNL1        0.0901
     26 C         140.3594  141.4165  161.7190 C.3     1  UNL1        0.0921
     27 C         141.8101  138.8448  163.7968 C.ar    1  UNL1        0.0480
     28 C         141.9028  138.3163  165.1975 C.ar    1  UNL1        0.0168
     29 C         143.2358  138.2305  165.8800 C.ar    1  UNL1        0.0309
     30 C         144.4760  138.6732  165.1618 C.ar    1  UNL1        0.1402
     31 F         145.8090  138.5874  165.8444 F       1  UNL1       -0.2042
     32 C         144.3833  139.2017  163.7611 C.ar    1  UNL1        0.0309
     33 C         143.0503  139.2875  163.0785 C.ar    1  UNL1        0.0168
@<TRIPOS>BOND
     1     4     5    1
     2     5     6   ar
     3     6     3    1
     4     3     2    1
     5     2     1    1
     6     1    18    1
     7    18    19    1
     8    19    20    1
     9    20    21    1
    10    21    22    1
    11    22    23    1
    12    23    24    1
    13    24    27    1
    14    27    28   ar
    15    28    29   ar
    16    29    30   ar
    17    30    31    1
    18    30    32   ar
    19    32    33   ar
    20    24    25    1
    21    25    26    1
    22     6     7   ar
    23     7     8   ar
    24     8     9   ar
    25     9    10    1
    26    10    11   ar
    27    11    12   ar
    28    12    13   ar
    29    13    14    1
    30    13    15   ar
    31    15    16    2
    32    15    17   ar
    33     9     5   ar
    34    17    10   ar
    35    26    19    1
    36    25    21    1
    37    33    27   ar
@<TRIPOS>MOLECULE
*****
 33 37 0 0 0
SMALL
GASTEIGER

@<TRIPOS>ATOM
      1 C         142.2266  138.1133  160.1880 C.3     1  UNL1        0.0294
      2 C         142.1030  138.0004  161.6787 C.3     1  UNL1        0.0666
      3 S         140.7599  137.7670  162.3044 S.3     1  UNL1       -0.0756
      4 C         142.0427  138.0046  165.2956 C.3     1  UNL1        0.1340
      5 N         140.8666  138.7776  164.7767 N.ar    1  UNL1       -0.2884
      6 C         140.2770  138.6684  163.4018 C.ar    1  UNL1        0.1932
      7 N         139.1196  139.6188  163.3168 N.ar    1  UNL1       -0.1221
      8 N         138.9940  140.3155  164.6393 N.ar    1  UNL1       -0.1282
      9 C         140.0736  139.7956  165.5416 C.ar    1  UNL1        0.1670
     10 C         140.3175  140.2193  166.9597 C.ar    1  UNL1        0.0422
     11 C         141.5761  140.9528  167.3174 C.ar    1  UNL1        0.0219
     12 C         141.8200  141.3765  168.7355 C.ar    1  UNL1        0.0785
     13 N         140.8052  141.0667  169.7959 N.ar    1  UNL1       -0.2922
     14 C         141.0491  141.4904  171.2140 C.3     1  UNL1        0.1336
     15 C         139.5466  140.3332  169.4381 C.ar    1  UNL1        0.2611
     16 O         138.5319  140.0234  170.4985 O.2     1  UNL1       -0.2670
     17 C         139.3028  139.9095  168.0200 C.ar    1  UNL1        0.0638
     18 C         142.7285  139.3852  159.5712 C.3     1  UNL1        0.0731
     19 N         142.9066  140.6102  160.4182 N.3     1  UNL1       -0.2712
     20 C         144.1710  141.4036  160.5662 C.3     1  UNL1        0.0738
     21 C         143.8974  142.5407  161.5054 C.3     1  UNL1        0.0372
     22 C         144.5098  143.7338  162.1774 C.3     1  UNL1        0.0245
     23 C         143.4549  144.3806  163.0252 C.3     1  UNL1        0.0909
     24 N         142.1905  143.5871  162.8773 N.pl3   1  UNL1       -0.3077
     25 C         142.4640  142.4500  161.9380 C.3     1  UNL1        0.0901
     26 C         141.8517  141.2569  161.2661 C.3     1  UNL1        0.0921
     27 C         140.8823  143.8794  163.5504 C.ar    1  UNL1        0.0480
     28 C         139.7396  144.4408  162.7573 C.ar    1  UNL1        0.0168
     29 C         138.4314  144.7331  163.4304 C.ar    1  UNL1        0.0309
     30 C         138.2658  144.4641  164.8968 C.ar    1  UNL1        0.1402
     31 F         136.9576  144.7564  165.5699 F       1  UNL1       -0.2042
     32 C         139.4085  143.9027  165.6900 C.ar    1  UNL1        0.0309
     33 C         140.7167  143.6103  165.0169 C.ar    1  UNL1        0.0168
@<TRIPOS>BOND
     1     4     5    1
     2     5     6   ar
     3     6     3    1
     4     3     2    1
     5     2     1    1
     6     1    18    1
     7    18    19    1
     8    19    20    1
     9    20    21    1
    10    21    22    1
    11    22    23    1
    12    23    24    1
    13    24    27    1
    14    27    28   ar
    15    28    29   ar
    16    29    30   ar
    17    30    31    1
    18    30    32   ar
    19    32    33   ar
    20    24    25    1
    21    25    26    1
    22     6     7   ar
    23     7     8   ar
    24     8     9   ar
    25     9    10    1
    26    10    11   ar
    27    11    12   ar
    28    12    13   ar
    29    13    14    1
    30    13    15   ar
    31    15    16    2
    32    15    17   ar
    33     9     5   ar
    34    17    10   ar
    35    26    19    1
    36    25    21    1
    37    33    27   ar
@<TRIPOS>MOLECULE
*****
 33 37 0 0 0
SMALL
GASTEIGER

@<TRIPOS>ATOM
      1 C         140.4579  144.4089  160.1653 C.3     1  UNL1        0.0294
      2 C         139.8737  144.9204  161.4488 C.3     1  UNL1        0.0666
      3 S         140.7731  145.4734  162.5142 S.3     1  UNL1       -0.0756
      4 C         139.5112  143.9732  165.1232 C.3     1  UNL1        0.1340
      5 N         140.9244  143.8532  164.6349 N.ar    1  UNL1       -0.2884
      6 C         141.5044  144.5428  163.4357 C.ar    1  UNL1        0.1932
      7 N         142.9442  144.1384  163.3197 N.ar    1  UNL1       -0.1221
      8 N         143.2540  143.1989  164.4472 N.ar    1  UNL1       -0.1282
      9 C         142.0057  143.0226  165.2601 C.ar    1  UNL1        0.1670
     10 C         141.8637  142.1661  166.4833 C.ar    1  UNL1        0.0422
     11 C         142.6731  140.9104  166.6178 C.ar    1  UNL1        0.0219
     12 C         142.5311  140.0539  167.8410 C.ar    1  UNL1        0.0785
     13 N         141.5796  140.4533  168.9298 N.ar    1  UNL1       -0.2922
     14 C         141.4376  139.5968  170.1530 C.3     1  UNL1        0.1336
     15 C         140.7702  141.7090  168.7953 C.ar    1  UNL1        0.2611
     16 O         139.8188  142.1082  169.8841 O.2     1  UNL1       -0.2670
     17 C         140.9123  142.5654  167.5720 C.ar    1  UNL1        0.0638
     18 C         140.3974  142.9449  159.8445 C.3     1  UNL1        0.0731
     19 N         140.9330  141.9403  160.8213 N.3     1  UNL1       -0.2712
     20 C         142.3384  141.4182  160.8676 C.3     1  UNL1        0.0738
     21 C         142.4312  140.4368  161.9982 C.3     1  UNL1        0.0372
     22 C         143.3571  139.5075  162.7255 C.3     1  UNL1        0.0245
     23 C         142.5813  138.8486  163.8274 C.3     1  UNL1        0.0909
     24 N         141.1758  139.3708  163.7810 N.pl3   1  UNL1       -0.3077
     25 C         141.0831  140.3523  162.6505 C.3     1  UNL1        0.0901
     26 C         140.1572  141.2816  161.9231 C.3     1  UNL1        0.0921
     27 C         140.0592  138.9801  164.7033 C.ar    1  UNL1        0.0480
     28 C         139.3282  140.0319  165.4837 C.ar    1  UNL1        0.0168
     29 C         138.2116  139.6412  166.4059 C.ar    1  UNL1        0.0309
     30 C         137.8260  138.1986  166.5477 C.ar    1  UNL1        0.1402
     31 F         136.7094  137.8078  167.4699 F       1  UNL1       -0.2042
     32 C         138.5570  137.1466  165.7672 C.ar    1  UNL1        0.0309
     33 C         139.6736  137.5374  164.8450 C.ar    1  UNL1        0.0168
@<TRIPOS>BOND
     1     4     5    1
     2     5     6   ar
     3     6     3    1
     4     3     2    1
     5     2     1    1
     6     1    18    1
     7    18    19    1
     8    19    20    1
     9    20    21    1
    10    21    22    1
    11    22    23    1
    12    23    24    1
    13    24    27    1
    14    27    28   ar
    15    28    29   ar
    16    29    30   ar
    17    30    31    1
    18    30    32   ar
    19    32    33   ar
    20    24    25    1
    21    25    26    1
    22     6     7   ar
    23     7     8   ar
    24     8     9   ar
    25     9    10    1
    26    10    11   ar
    27    11    12   ar
    28    12    13   ar
    29    13    14    1
    30    13    15   ar
    31    15    16    2
    32    15    17   ar
    33     9     5   ar
    34    17    10   ar
    35    26    19    1
    36    25    21    1
    37    33    27   ar
@<TRIPOS>MOLECULE
*****
 33 37 0 0 0
SMALL
GASTEIGER

@<TRIPOS>ATOM
      1 C         137.5527  140.0800  159.5736 C.3     1  UNL1        0.0294
      2 C         137.4152  139.6063  160.9902 C.3     1  UNL1        0.0666
      3 S         137.5708  140.5762  162.1238 S.3     1  UNL1       -0.0756
      4 C         138.1289  142.4539  164.7339 C.3     1  UNL1        0.1340
      5 N         138.4899  141.0044  164.5970 N.ar    1  UNL1       -0.2884
      6 C         138.2334  140.1414  163.3973 C.ar    1  UNL1        0.1932
      7 N         138.7558  138.7671  163.6946 N.ar    1  UNL1       -0.1221
      8 N         139.3352  138.7807  165.0781 N.ar    1  UNL1       -0.1282
      9 C         139.1709  140.1635  165.6359 C.ar    1  UNL1        0.1670
     10 C         139.6104  140.6244  166.9940 C.ar    1  UNL1        0.0422
     11 C         140.5620  141.7767  167.1234 C.ar    1  UNL1        0.0219
     12 C         141.0015  142.2376  168.4815 C.ar    1  UNL1        0.0785
     13 N         140.4893  141.5461  169.7102 N.ar    1  UNL1       -0.2922
     14 C         140.9288  142.0069  171.0683 C.3     1  UNL1        0.1336
     15 C         139.5377  140.3938  169.5808 C.ar    1  UNL1        0.2611
     16 O         139.0256  139.7024  170.8095 O.2     1  UNL1       -0.2670
     17 C         139.0983  139.9329  168.2226 C.ar    1  UNL1        0.0638
     18 C         138.8992  140.4714  159.0409 C.3     1  UNL1        0.0731
     19 N         140.1449  139.9632  159.7042 N.3     1  UNL1       -0.2712
     20 C         140.8154  138.6493  159.4319 C.3     1  UNL1        0.0738
     21 C         142.0237  138.5537  160.3157 C.3     1  UNL1        0.0372
     22 C         143.1849  137.6826  160.6936 C.3     1  UNL1        0.0245
     23 C         143.9787  138.3990  161.7456 C.3     1  UNL1        0.0909
     24 N         143.3081  139.7129  162.0178 N.pl3   1  UNL1       -0.3077
     25 C         142.0999  139.8085  161.1340 C.3     1  UNL1        0.0901
     26 C         140.9387  140.6796  160.7561 C.3     1  UNL1        0.0921
     27 C         143.7655  140.7492  163.0011 C.ar    1  UNL1        0.0480
     28 C         145.2048  141.1702  163.0320 C.ar    1  UNL1        0.0168
     29 C         145.6622  142.2065  164.0153 C.ar    1  UNL1        0.0309
     30 C         144.6803  142.8219  164.9677 C.ar    1  UNL1        0.1402
     31 F         145.1376  143.8582  165.9509 F       1  UNL1       -0.2042
     32 C         143.2408  142.4009  164.9368 C.ar    1  UNL1        0.0309
     33 C         142.7834  141.3646  163.9535 C.ar    1  UNL1        0.0168
@<TRIPOS>BOND
     1     4     5    1
     2     5     6   ar
     3     6     3    1
     4     3     2    1
     5     2     1    1
     6     1    18    1
     7    18    19    1
     8    19    20    1
     9    20    21    1
    10    21    22    1
    11    22    23    1
    12    23    24    1
    13    24    27    1
    14    27    28   ar
    15    28    29   ar
    16    29    30   ar
    17    30    31    1
    18    30    32   ar
    19    32    33   ar
    20    24    25    1
    21    25    26    1
    22     6     7   ar
    23     7     8   ar
    24     8     9   ar
    25     9    10    1
    26    10    11   ar
    27    11    12   ar
    28    12    13   ar
    29    13    14    1
    30    13    15   ar
    31    15    16    2
    32    15    17   ar
    33     9     5   ar
    34    17    10   ar
    35    26    19    1
    36    25    21    1
    37    33    27   ar
