@<TRIPOS>MOLECULE
*****
 32 35 0 0 0
SMALL
GASTEIGER

@<TRIPOS>ATOM
      1 C         143.8338  138.6862  160.9214 C.3     1  UNL1        0.0722
      2 N         143.5821  138.8741  162.3882 N.3     1  UNL1       -0.2727
      3 C         144.3807  139.8796  163.1635 C.3     1  UNL1        0.0725
      4 C         144.1289  140.0674  164.6302 C.3     1  UNL1        0.0234
      5 C         143.0784  139.2497  165.3217 C.3     1  UNL1        0.0464
      6 C         142.2799  138.2443  164.5463 C.3     1  UNL1        0.0234
      7 C         142.5317  138.0564  163.0796 C.3     1  UNL1        0.0725
      8 C         142.8266  139.4376  166.7884 C.ar    1  UNL1        0.1003
      9 N         143.3351  138.5559  167.8903 N.ar    1  UNL1       -0.0814
     10 O         142.8448  139.1136  169.1936 O.2     1  UNL1       -0.3536
     11 C         142.0334  140.3399  168.8973 C.ar    1  UNL1        0.1787
     12 C         141.3034  141.3000  169.7890 C.ar    1  UNL1        0.0698
     13 C         140.5621  142.4604  169.1941 C.ar    1  UNL1        0.1433
     14 F         139.8320  143.4206  170.0858 F       1  UNL1       -0.2041
     15 C         140.5508  142.6607  167.7076 C.ar    1  UNL1        0.0299
     16 C         141.2809  141.7005  166.8159 C.ar    1  UNL1        0.0067
     17 C         142.0222  140.5401  167.4107 C.ar    1  UNL1        0.0540
     18 C         142.9050  137.8387  160.1035 C.3     1  UNL1        0.0212
     19 C         141.6253  138.4197  159.5793 C.3     1  UNL1        0.0488
     20 C         141.6065  139.8127  159.0233 C.3     1  UNL1        0.2054
     21 O         140.6282  140.8187  159.5534 O.3     1  UNL1       -0.4755
     22 C         138.9064  140.3240  163.6814 C.ar    1  UNL1        0.0505
     23 C         140.2317  141.0022  163.4979 C.ar    1  UNL1        0.0178
     24 C         140.8056  141.1671  162.1219 C.ar    1  UNL1        0.0382
     25 C         140.0543  140.6538  160.9294 C.ar    1  UNL1        0.1386
     26 C         138.7290  139.9756  161.1130 C.ar    1  UNL1        0.0382
     27 C         138.1550  139.8107  162.4890 C.ar    1  UNL1        0.0178
     28 C         137.7254  138.6387  167.0748 C.3     1  UNL1        0.0949
     29 C         138.2993  138.8036  165.6988 C.2     1  UNL1        0.2266
     30 O         138.8402  137.6129  164.9641 O.2     1  UNL1       -0.2748
     31 N         138.3325  140.1591  165.0574 N.am    1  UNL1       -0.2839
     32 H         137.9775  140.9406  165.5396 H       1  UNL1        0.1549
@<TRIPOS>BOND
     1    28    29    1
     2    29    30    2
     3    29    31   am
     4    31    22    1
     5    22    23   ar
     6    23    24   ar
     7    24    25   ar
     8    25    21    1
     9    21    20    1
    10    20    19    1
    11    19    18    1
    12    18     1    1
    13     1     2    1
    14     2     3    1
    15     3     4    1
    16     4     5    1
    17     5     8    1
    18     8     9   ar
    19     9    10   ar
    20    10    11   ar
    21    11    12   ar
    22    12    13   ar
    23    13    14    1
    24    13    15   ar
    25    15    16   ar
    26    16    17   ar
    27     5     6    1
    28     6     7    1
    29    25    26   ar
    30    26    27   ar
    31    27    22   ar
    32     7     2    1
    33    17     8   ar
    34    17    11   ar
    35    31    32    1
@<TRIPOS>MOLECULE
*****
 32 35 0 0 0
SMALL
GASTEIGER

@<TRIPOS>ATOM
      1 C         143.8270  142.9288  161.6143 C.3     1  UNL1        0.0722
      2 N         143.6545  142.7543  163.0941 N.3     1  UNL1       -0.2727
      3 C         142.9458  141.5454  163.6291 C.3     1  UNL1        0.0725
      4 C         142.7733  141.3709  165.1089 C.3     1  UNL1        0.0234
      5 C         143.3096  142.4053  166.0537 C.3     1  UNL1        0.0464
      6 C         144.0182  143.6141  165.5186 C.3     1  UNL1        0.0234
      7 C         144.1907  143.7887  164.0388 C.3     1  UNL1        0.0725
      8 C         143.1371  142.2308  167.5335 C.ar    1  UNL1        0.1003
      9 N         144.0606  142.7488  168.5960 N.ar    1  UNL1       -0.0814
     10 O         143.5051  142.3458  169.9297 O.2     1  UNL1       -0.3536
     11 C         142.2382  141.5786  169.6916 C.ar    1  UNL1        0.1787
     12 C         141.2624  140.9356  170.6319 C.ar    1  UNL1        0.0698
     13 C         140.0592  140.2216  170.0913 C.ar    1  UNL1        0.1433
     14 F         139.0833  139.5785  171.0317 F       1  UNL1       -0.2041
     15 C         139.8318  140.1505  168.6103 C.ar    1  UNL1        0.0299
     16 C         140.8076  140.7935  167.6700 C.ar    1  UNL1        0.0067
     17 C         142.0108  141.5076  168.2106 C.ar    1  UNL1        0.0540
     18 C         142.6520  143.3061  160.7616 C.3     1  UNL1        0.0212
     19 C         141.8466  144.5276  161.0926 C.3     1  UNL1        0.0488
     20 C         140.4391  144.6565  160.5905 C.3     1  UNL1        0.2054
     21 O         139.3075  144.8139  161.5624 O.3     1  UNL1       -0.4755
     22 C         138.2061  141.4183  164.3022 C.ar    1  UNL1        0.0505
     23 C         137.4324  141.6421  163.0367 C.ar    1  UNL1        0.0178
     24 C         137.7996  142.7740  162.1235 C.ar    1  UNL1        0.0382
     25 C         138.9403  143.6820  162.4757 C.ar    1  UNL1        0.1386
     26 C         139.7140  143.4582  163.7412 C.ar    1  UNL1        0.0382
     27 C         139.3468  142.3263  164.6544 C.ar    1  UNL1        0.0178
     28 C         138.2661  137.8824  166.1033 C.3     1  UNL1        0.0949
     29 C         138.6333  139.0143  165.1901 C.2     1  UNL1        0.2266
     30 O         139.7948  138.8741  164.2514 O.2     1  UNL1       -0.2748
     31 N         137.8389  140.2864  165.2154 N.am    1  UNL1       -0.2839
     32 H         137.0765  140.3784  165.8315 H       1  UNL1        0.1549
@<TRIPOS>BOND
     1    28    29    1
     2    29    30    2
     3    29    31   am
     4    31    22    1
     5    22    23   ar
     6    23    24   ar
     7    24    25   ar
     8    25    21    1
     9    21    20    1
    10    20    19    1
    11    19    18    1
    12    18     1    1
    13     1     2    1
    14     2     3    1
    15     3     4    1
    16     4     5    1
    17     5     8    1
    18     8     9   ar
    19     9    10   ar
    20    10    11   ar
    21    11    12   ar
    22    12    13   ar
    23    13    14    1
    24    13    15   ar
    25    15    16   ar
    26    16    17   ar
    27     5     6    1
    28     6     7    1
    29    25    26   ar
    30    26    27   ar
    31    27    22   ar
    32     7     2    1
    33    17     8   ar
    34    17    11   ar
    35    31    32    1
@<TRIPOS>MOLECULE
*****
 32 35 0 0 0
SMALL
GASTEIGER

@<TRIPOS>ATOM
      1 C         140.1962  137.7672  162.4277 C.3     1  UNL1        0.0722
      2 N         140.1414  138.3436  163.8115 N.3     1  UNL1       -0.2727
      3 C         141.3667  138.9640  164.4146 C.3     1  UNL1        0.0725
      4 C         141.3119  139.5404  165.7983 C.3     1  UNL1        0.0234
      5 C         140.0318  139.4964  166.5790 C.3     1  UNL1        0.0464
      6 C         138.8066  138.8760  165.9759 C.3     1  UNL1        0.0234
      7 C         138.8613  138.2996  164.5921 C.3     1  UNL1        0.0725
      8 C         139.9770  140.0727  167.9628 C.ar    1  UNL1        0.1003
      9 N         138.9048  139.8207  168.9811 N.ar    1  UNL1       -0.0814
     10 O         139.2500  140.5946  170.2188 O.2     1  UNL1       -0.3536
     11 C         140.5355  141.3249  169.9655 C.ar    1  UNL1        0.1787
     12 C         141.3549  142.2419  170.8242 C.ar    1  UNL1        0.0698
     13 C         142.6237  142.8364  170.2887 C.ar    1  UNL1        0.1433
     14 F         143.4432  143.7535  171.1475 F       1  UNL1       -0.2041
     15 C         143.0730  142.5139  168.8944 C.ar    1  UNL1        0.0299
     16 C         142.2535  141.5969  168.0356 C.ar    1  UNL1        0.0067
     17 C         140.9848  141.0024  168.5711 C.ar    1  UNL1        0.0540
     18 C         139.8739  138.6289  161.2430 C.3     1  UNL1        0.0212
     19 C         138.4452  138.8513  160.8439 C.3     1  UNL1        0.0488
     20 C         137.5961  139.8244  161.6069 C.3     1  UNL1        0.2054
     21 O         137.8685  141.2961  161.5075 O.3     1  UNL1       -0.4755
     22 C         141.2034  143.1341  163.9055 C.ar    1  UNL1        0.0505
     23 C         141.3349  143.0008  162.4172 C.ar    1  UNL1        0.0178
     24 C         140.2233  142.3882  161.6179 C.ar    1  UNL1        0.0382
     25 C         138.9801  141.9088  162.3068 C.ar    1  UNL1        0.1386
     26 C         138.8486  142.0420  163.7951 C.ar    1  UNL1        0.0382
     27 C         139.9602  142.6547  164.5944 C.ar    1  UNL1        0.0178
     28 C         144.7222  143.6230  165.6743 C.3     1  UNL1        0.0949
     29 C         143.6106  143.0103  164.8750 C.2     1  UNL1        0.2266
     30 O         143.7946  141.6612  164.2457 O.2     1  UNL1       -0.2748
     31 N         142.3150  143.7468  164.7048 N.am    1  UNL1       -0.2839
     32 H         142.1942  144.6322  165.1178 H       1  UNL1        0.1549
@<TRIPOS>BOND
     1    28    29    1
     2    29    30    2
     3    29    31   am
     4    31    22    1
     5    22    23   ar
     6    23    24   ar
     7    24    25   ar
     8    25    21    1
     9    21    20    1
    10    20    19    1
    11    19    18    1
    12    18     1    1
    13     1     2    1
    14     2     3    1
    15     3     4    1
    16     4     5    1
    17     5     8    1
    18     8     9   ar
    19     9    10   ar
    20    10    11   ar
    21    11    12   ar
    22    12    13   ar
    23    13    14    1
    24    13    15   ar
    25    15    16   ar
    26    16    17   ar
    27     5     6    1
    28     6     7    1
    29    25    26   ar
    30    26    27   ar
    31    27    22   ar
    32     7     2    1
    33    17     8   ar
    34    17    11   ar
    35    31    32    1
@<TRIPOS>MOLECULE
*****
 32 35 0 0 0
SMALL
GASTEIGER

@<TRIPOS>ATOM
      1 C         140.8377  145.7527  162.3639 C.3     1  UNL1        0.0722
      2 N         140.6317  144.7105  163.4229 N.3     1  UNL1       -0.2727
      3 C         139.2607  144.4702  163.9821 C.3     1  UNL1        0.0725
      4 C         139.0547  143.4281  165.0411 C.3     1  UNL1        0.0234
      5 C         140.2198  142.6262  165.5410 C.3     1  UNL1        0.0464
      6 C         141.5907  142.8665  164.9818 C.3     1  UNL1        0.0234
      7 C         141.7967  143.9087  163.9228 C.3     1  UNL1        0.0725
      8 C         140.0138  141.5840  166.6000 C.ar    1  UNL1        0.1003
      9 N         139.0947  140.4023  166.5071 N.ar    1  UNL1       -0.0814
     10 O         139.2036  139.6286  167.7875 O.2     1  UNL1       -0.3536
     11 C         140.1900  140.3322  168.6718 C.ar    1  UNL1        0.1787
     12 C         140.6970  140.0285  170.0504 C.ar    1  UNL1        0.0698
     13 C         141.7046  140.9334  170.6952 C.ar    1  UNL1        0.1433
     14 F         142.2116  140.6298  172.0739 F       1  UNL1       -0.2041
     15 C         142.2054  142.1420  169.9612 C.ar    1  UNL1        0.0299
     16 C         141.6984  142.4456  168.5825 C.ar    1  UNL1        0.0067
     17 C         140.6908  141.5407  167.9378 C.ar    1  UNL1        0.0540
     18 C         139.8725  145.8614  161.2208 C.3     1  UNL1        0.0212
     19 C         140.3267  145.5562  159.8242 C.3     1  UNL1        0.0488
     20 C         139.9479  144.2558  159.1797 C.3     1  UNL1        0.2054
     21 O         138.8767  143.4007  159.7892 O.3     1  UNL1       -0.4755
     22 C         139.9593  140.2647  162.8294 C.ar    1  UNL1        0.0505
     23 C         141.0306  140.9013  161.9944 C.ar    1  UNL1        0.0178
     24 C         140.6697  141.9466  160.9810 C.ar    1  UNL1        0.0382
     25 C         139.2376  142.3554  160.8026 C.ar    1  UNL1        0.1386
     26 C         138.1663  141.7188  161.6375 C.ar    1  UNL1        0.0382
     27 C         138.5272  140.6735  162.6510 C.ar    1  UNL1        0.0178
     28 C         141.0267  136.7843  164.4099 C.3     1  UNL1        0.0949
     29 C         140.6658  137.8297  163.3965 C.2     1  UNL1        0.2266
     30 O         140.6505  137.4853  161.9366 O.2     1  UNL1       -0.2748
     31 N         140.3202  139.2194  163.8428 N.am    1  UNL1       -0.2839
     32 H         140.3302  139.4454  164.8010 H       1  UNL1        0.1549
@<TRIPOS>BOND
     1    28    29    1
     2    29    30    2
     3    29    31   am
     4    31    22    1
     5    22    23   ar
     6    23    24   ar
     7    24    25   ar
     8    25    21    1
     9    21    20    1
    10    20    19    1
    11    19    18    1
    12    18     1    1
    13     1     2    1
    14     2     3    1
    15     3     4    1
    16     4     5    1
    17     5     8    1
    18     8     9   ar
    19     9    10   ar
    20    10    11   ar
    21    11    12   ar
    22    12    13   ar
    23    13    14    1
    24    13    15   ar
    25    15    16   ar
    26    16    17   ar
    27     5     6    1
    28     6     7    1
    29    25    26   ar
    30    26    27   ar
    31    27    22   ar
    32     7     2    1
    33    17     8   ar
    34    17    11   ar
    35    31    32    1
@<TRIPOS>MOLECULE
*****
 32 35 0 0 0
SMALL
GASTEIGER

@<TRIPOS>ATOM
      1 C         137.4884  139.5532  161.0480 C.3     1  UNL1        0.0722
      2 N         137.9333  139.6410  162.4778 N.3     1  UNL1       -0.2727
      3 C         138.4989  138.4324  163.1629 C.3     1  UNL1        0.0725
      4 C         138.9438  138.5203  164.5927 C.3     1  UNL1        0.0234
      5 C         138.8231  139.8168  165.3375 C.3     1  UNL1        0.0464
      6 C         138.2574  141.0253  164.6524 C.3     1  UNL1        0.0234
      7 C         137.8126  140.9374  163.2226 C.3     1  UNL1        0.0725
      8 C         139.2679  139.9046  166.7673 C.ar    1  UNL1        0.1003
      9 N         138.5505  139.3266  167.9510 N.ar    1  UNL1       -0.0814
     10 O         139.3475  139.6507  169.1797 O.2     1  UNL1       -0.3536
     11 C         140.5576  140.4290  168.7554 C.ar    1  UNL1        0.1787
     12 C         141.6978  141.0151  169.5340 C.ar    1  UNL1        0.0698
     13 C         142.7889  141.7581  168.8217 C.ar    1  UNL1        0.1433
     14 F         143.9292  142.3443  169.6003 F       1  UNL1       -0.2041
     15 C         142.7396  141.9151  167.3307 C.ar    1  UNL1        0.0299
     16 C         141.5994  141.3290  166.5521 C.ar    1  UNL1        0.0067
     17 C         140.5084  140.5860  167.2644 C.ar    1  UNL1        0.0540
     18 C         138.4978  139.6399  159.9418 C.3     1  UNL1        0.0212
     19 C         138.8805  140.9767  159.3789 C.3     1  UNL1        0.0488
     20 C         140.1642  141.1304  158.6184 C.3     1  UNL1        0.2054
     21 O         141.4508  141.3547  159.3562 O.3     1  UNL1       -0.4755
     22 C         142.2150  139.2242  163.2455 C.ar    1  UNL1        0.0505
     23 C         141.7683  140.6562  163.2499 C.ar    1  UNL1        0.0178
     24 C         141.5135  141.3663  161.9535 C.ar    1  UNL1        0.0382
     25 C         141.7056  140.6445  160.6527 C.ar    1  UNL1        0.1386
     26 C         142.1523  139.2126  160.6483 C.ar    1  UNL1        0.0382
     27 C         142.4071  138.5025  161.9447 C.ar    1  UNL1        0.0178
     28 C         144.0266  137.9987  166.5571 C.3     1  UNL1        0.0949
     29 C         143.7719  138.7088  165.2606 C.2     1  UNL1        0.2266
     30 O         144.8194  139.6137  164.6827 O.2     1  UNL1       -0.2748
     31 N         142.4698  138.5141  164.5420 N.am    1  UNL1       -0.2839
     32 H         141.7823  137.9202  164.9213 H       1  UNL1        0.1549
@<TRIPOS>BOND
     1    28    29    1
     2    29    30    2
     3    29    31   am
     4    31    22    1
     5    22    23   ar
     6    23    24   ar
     7    24    25   ar
     8    25    21    1
     9    21    20    1
    10    20    19    1
    11    19    18    1
    12    18     1    1
    13     1     2    1
    14     2     3    1
    15     3     4    1
    16     4     5    1
    17     5     8    1
    18     8     9   ar
    19     9    10   ar
    20    10    11   ar
    21    11    12   ar
    22    12    13   ar
    23    13    14    1
    24    13    15   ar
    25    15    16   ar
    26    16    17   ar
    27     5     6    1
    28     6     7    1
    29    25    26   ar
    30    26    27   ar
    31    27    22   ar
    32     7     2    1
    33    17     8   ar
    34    17    11   ar
    35    31    32    1
@<TRIPOS>MOLECULE
*****
 32 35 0 0 0
SMALL
GASTEIGER

@<TRIPOS>ATOM
      1 C         138.1959  139.9982  159.6827 C.3     1  UNL1        0.0722
      2 N         138.2496  139.8756  161.1767 N.3     1  UNL1       -0.2727
      3 C         137.6405  140.9411  162.0391 C.3     1  UNL1        0.0725
      4 C         137.6942  140.8184  163.5331 C.3     1  UNL1        0.0234
      5 C         138.3571  139.6302  164.1648 C.3     1  UNL1        0.0464
      6 C         138.9661  138.5647  163.3024 C.3     1  UNL1        0.0234
      7 C         138.9124  138.6874  161.8084 C.3     1  UNL1        0.0725
      8 C         138.4108  139.5075  165.6588 C.ar    1  UNL1        0.1003
      9 N         137.6458  138.5210  166.4905 N.ar    1  UNL1       -0.0814
     10 O         138.0012  138.7537  167.9291 O.2     1  UNL1       -0.3536
     11 C         138.9857  139.8839  167.9865 C.ar    1  UNL1        0.1787
     12 C         139.6844  140.5490  169.1352 C.ar    1  UNL1        0.0698
     13 C         140.6362  141.6800  168.8807 C.ar    1  UNL1        0.1433
     14 F         141.3350  142.3451  170.0293 F       1  UNL1       -0.2041
     15 C         140.8894  142.1459  167.4775 C.ar    1  UNL1        0.0299
     16 C         140.1907  141.4808  166.3289 C.ar    1  UNL1        0.0067
     17 C         139.2389  140.3498  166.5834 C.ar    1  UNL1        0.0540
     18 C         138.5968  141.2832  159.0208 C.3     1  UNL1        0.0212
     19 C         139.6609  141.2820  157.9635 C.3     1  UNL1        0.0488
     20 C         141.1061  141.1895  158.3541 C.3     1  UNL1        0.2054
     21 O         141.8088  142.3887  158.9182 O.3     1  UNL1       -0.4755
     22 C         140.6679  143.9626  162.9767 C.ar    1  UNL1        0.0505
     23 C         140.9032  142.4942  162.7806 C.ar    1  UNL1        0.0178
     24 C         141.2835  141.9695  161.4278 C.ar    1  UNL1        0.0382
     25 C         141.4285  142.9133  160.2710 C.ar    1  UNL1        0.1386
     26 C         141.1932  144.3818  160.4670 C.ar    1  UNL1        0.0382
     27 C         140.8129  144.9064  161.8199 C.ar    1  UNL1        0.0178
     28 C         138.4610  145.1857  166.0399 C.3     1  UNL1        0.0949
     29 C         138.8413  144.6611  164.6871 C.2     1  UNL1        0.2266
     30 O         137.7752  144.3103  163.6918 O.2     1  UNL1       -0.2748
     31 N         140.2876  144.4872  164.3295 N.am    1  UNL1       -0.2839
     32 H         140.9872  144.7174  164.9827 H       1  UNL1        0.1549
@<TRIPOS>BOND
     1    28    29    1
     2    29    30    2
     3    29    31   am
     4    31    22    1
     5    22    23   ar
     6    23    24   ar
     7    24    25   ar
     8    25    21    1
     9    21    20    1
    10    20    19    1
    11    19    18    1
    12    18     1    1
    13     1     2    1
    14     2     3    1
    15     3     4    1
    16     4     5    1
    17     5     8    1
    18     8     9   ar
    19     9    10   ar
    20    10    11   ar
    21    11    12   ar
    22    12    13   ar
    23    13    14    1
    24    13    15   ar
    25    15    16   ar
    26    16    17   ar
    27     5     6    1
    28     6     7    1
    29    25    26   ar
    30    26    27   ar
    31    27    22   ar
    32     7     2    1
    33    17     8   ar
    34    17    11   ar
    35    31    32    1
@<TRIPOS>MOLECULE
*****
 32 35 0 0 0
SMALL
GASTEIGER

@<TRIPOS>ATOM
      1 C         138.6656  138.5404  161.1686 C.3     1  UNL1        0.0722
      2 N         138.7534  138.8388  162.6360 N.3     1  UNL1       -0.2727
      3 C         138.0273  140.0213  163.2056 C.3     1  UNL1        0.0725
      4 C         138.1151  140.3197  164.6730 C.3     1  UNL1        0.0234
      5 C         138.9291  139.4355  165.5708 C.3     1  UNL1        0.0464
      6 C         139.6551  138.2531  165.0011 C.3     1  UNL1        0.0234
      7 C         139.5673  137.9547  163.5337 C.3     1  UNL1        0.0725
      8 C         139.0169  139.7339  167.0382 C.ar    1  UNL1        0.1003
      9 N         138.2210  139.0696  168.1222 N.ar    1  UNL1       -0.0814
     10 O         138.6283  139.6742  169.4331 O.2     1  UNL1       -0.3536
     11 C         139.6760  140.7121  169.1594 C.ar    1  UNL1        0.1787
     12 C         140.4423  141.6284  170.0666 C.ar    1  UNL1        0.0698
     13 C         141.4488  142.5816  169.4937 C.ar    1  UNL1        0.1433
     14 F         142.2152  143.4980  170.4010 F       1  UNL1       -0.2041
     15 C         141.6890  142.6186  168.0135 C.ar    1  UNL1        0.0299
     16 C         140.9227  141.7023  167.1063 C.ar    1  UNL1        0.0067
     17 C         139.9162  140.7491  167.6792 C.ar    1  UNL1        0.0540
     18 C         138.1422  139.5796  160.2219 C.3     1  UNL1        0.0212
     19 C         139.0483  140.6681  159.7276 C.3     1  UNL1        0.0488
     20 C         138.4758  141.8458  158.9959 C.3     1  UNL1        0.2054
     21 O         138.5952  143.2222  159.5803 O.3     1  UNL1       -0.4755
     22 C         141.5525  144.0181  162.8773 C.ar    1  UNL1        0.0505
     23 C         141.9743  144.1487  161.4437 C.ar    1  UNL1        0.0178
     24 C         140.9885  143.8834  160.3447 C.ar    1  UNL1        0.0382
     25 C         139.5810  143.4875  160.6793 C.ar    1  UNL1        0.1386
     26 C         139.1592  143.3569  162.1128 C.ar    1  UNL1        0.0382
     27 C         140.1449  143.6222  163.2118 C.ar    1  UNL1        0.0178
     28 C         144.4478  143.4593  165.5334 C.3     1  UNL1        0.0949
     29 C         143.4620  143.1940  164.4344 C.2     1  UNL1        0.2266
     30 O         143.3999  141.8392  163.7936 O.2     1  UNL1       -0.2748
     31 N         142.5383  144.2834  163.9763 N.am    1  UNL1       -0.2839
     32 H         142.5791  145.1726  164.3969 H       1  UNL1        0.1549
@<TRIPOS>BOND
     1    28    29    1
     2    29    30    2
     3    29    31   am
     4    31    22    1
     5    22    23   ar
     6    23    24   ar
     7    24    25   ar
     8    25    21    1
     9    21    20    1
    10    20    19    1
    11    19    18    1
    12    18     1    1
    13     1     2    1
    14     2     3    1
    15     3     4    1
    16     4     5    1
    17     5     8    1
    18     8     9   ar
    19     9    10   ar
    20    10    11   ar
    21    11    12   ar
    22    12    13   ar
    23    13    14    1
    24    13    15   ar
    25    15    16   ar
    26    16    17   ar
    27     5     6    1
    28     6     7    1
    29    25    26   ar
    30    26    27   ar
    31    27    22   ar
    32     7     2    1
    33    17     8   ar
    34    17    11   ar
    35    31    32    1
@<TRIPOS>MOLECULE
*****
 32 35 0 0 0
SMALL
GASTEIGER

@<TRIPOS>ATOM
      1 C         143.3895  138.1625  161.1102 C.3     1  UNL1        0.0722
      2 N         143.2249  138.4853  162.5658 N.3     1  UNL1       -0.2727
      3 C         142.0080  138.0142  163.3056 C.3     1  UNL1        0.0725
      4 C         141.8434  138.3371  164.7611 C.3     1  UNL1        0.0234
      5 C         142.8957  139.1311  165.4770 C.3     1  UNL1        0.0464
      6 C         144.1124  139.6022  164.7372 C.3     1  UNL1        0.0234
      7 C         144.2771  139.2793  163.2816 C.3     1  UNL1        0.0725
      8 C         142.7310  139.4540  166.9325 C.ar    1  UNL1        0.1003
      9 N         143.2809  138.6591  168.0796 N.ar    1  UNL1       -0.0814
     10 O         142.8773  139.3423  169.3525 O.2     1  UNL1       -0.3536
     11 C         142.0780  140.5594  168.9922 C.ar    1  UNL1        0.1787
     12 C         141.4208  141.6137  169.8327 C.ar    1  UNL1        0.0698
     13 C         140.6732  142.7370  169.1775 C.ar    1  UNL1        0.1433
     14 F         140.0160  143.7914  170.0181 F       1  UNL1       -0.2041
     15 C         140.5828  142.8060  167.6819 C.ar    1  UNL1        0.0299
     16 C         141.2400  141.7517  166.8413 C.ar    1  UNL1        0.0067
     17 C         141.9876  140.6284  167.4965 C.ar    1  UNL1        0.0540
     18 C         142.1942  137.7876  160.2853 C.3     1  UNL1        0.0212
     19 C         141.2888  138.8561  159.7479 C.3     1  UNL1        0.0488
     20 C         140.2413  138.5102  158.7316 C.3     1  UNL1        0.2054
     21 O         138.8878  139.1532  158.8007 O.3     1  UNL1       -0.4755
     22 C         137.9645  142.1071  162.0674 C.ar    1  UNL1        0.0505
     23 C         137.7293  140.6428  162.2919 C.ar    1  UNL1        0.0178
     24 C         138.0371  139.6581  161.2030 C.ar    1  UNL1        0.0382
     25 C         138.5801  140.1378  159.8896 C.ar    1  UNL1        0.1386
     26 C         138.8153  141.6022  159.6651 C.ar    1  UNL1        0.0382
     27 C         138.5075  142.5868  160.7541 C.ar    1  UNL1        0.0178
     28 C         138.4539  144.6116  165.1069 C.3     1  UNL1        0.0949
     29 C         138.7617  143.6269  164.0180 C.2     1  UNL1        0.2266
     30 O         140.1746  143.1774  163.7907 O.2     1  UNL1       -0.2748
     31 N         137.6567  143.0917  163.1564 N.am    1  UNL1       -0.2839
     32 H         136.7294  143.3868  163.3055 H       1  UNL1        0.1549
@<TRIPOS>BOND
     1    28    29    1
     2    29    30    2
     3    29    31   am
     4    31    22    1
     5    22    23   ar
     6    23    24   ar
     7    24    25   ar
     8    25    21    1
     9    21    20    1
    10    20    19    1
    11    19    18    1
    12    18     1    1
    13     1     2    1
    14     2     3    1
    15     3     4    1
    16     4     5    1
    17     5     8    1
    18     8     9   ar
    19     9    10   ar
    20    10    11   ar
    21    11    12   ar
    22    12    13   ar
    23    13    14    1
    24    13    15   ar
    25    15    16   ar
    26    16    17   ar
    27     5     6    1
    28     6     7    1
    29    25    26   ar
    30    26    27   ar
    31    27    22   ar
    32     7     2    1
    33    17     8   ar
    34    17    11   ar
    35    31    32    1
@<TRIPOS>MOLECULE
*****
 32 35 0 0 0
SMALL
GASTEIGER

@<TRIPOS>ATOM
      1 C         139.1401  143.1670  160.7942 C.3     1  UNL1        0.0722
      2 N         139.1396  142.5385  162.1562 N.3     1  UNL1       -0.2727
      3 C         137.8461  142.1125  162.7851 C.3     1  UNL1        0.0725
      4 C         137.8456  141.4840  164.1471 C.3     1  UNL1        0.0234
      5 C         139.1386  141.2816  164.8802 C.3     1  UNL1        0.0464
      6 C         140.4319  141.7076  164.2513 C.3     1  UNL1        0.0234
      7 C         140.4325  142.3361  162.8893 C.3     1  UNL1        0.0725
      8 C         139.1381  140.6531  166.2422 C.ar    1  UNL1        0.1003
      9 N         138.3856  139.4192  166.6436 N.ar    1  UNL1       -0.0814
     10 O         138.6725  139.1517  168.0914 O.2     1  UNL1       -0.3536
     11 C         139.6023  140.2203  168.5848 C.ar    1  UNL1        0.1787
     12 C         140.2241  140.4683  169.9271 C.ar    1  UNL1        0.0698
     13 C         141.1336  141.6443  170.1266 C.ar    1  UNL1        0.1433
     14 F         141.7555  141.8923  171.4690 F       1  UNL1       -0.2041
     15 C         141.4214  142.5722  168.9837 C.ar    1  UNL1        0.0299
     16 C         140.7997  142.3242  167.6414 C.ar    1  UNL1        0.0067
     17 C         139.8901  141.1483  167.4420 C.ar    1  UNL1        0.0540
     18 C         139.4476  142.3352  159.5845 C.3     1  UNL1        0.0212
     19 C         138.4327  141.3589  159.0679 C.3     1  UNL1        0.0488
     20 C         138.6230  139.8885  159.2952 C.3     1  UNL1        0.2054
     21 O         138.1296  139.2554  160.5623 O.3     1  UNL1       -0.4755
     22 C         141.0662  137.8810  163.6827 C.ar    1  UNL1        0.0505
     23 C         141.5592  138.5238  162.4202 C.ar    1  UNL1        0.0178
     24 C         140.5803  138.9819  161.3801 C.ar    1  UNL1        0.0382
     25 C         139.1084  138.7973  161.6024 C.ar    1  UNL1        0.1386
     26 C         138.6155  138.1545  162.8649 C.ar    1  UNL1        0.0382
     27 C         139.5944  137.6963  163.9050 C.ar    1  UNL1        0.0178
     28 C         143.8024  137.9723  166.5559 C.3     1  UNL1        0.0949
     29 C         142.8235  138.4304  165.5157 C.2     1  UNL1        0.2266
     30 O         142.6229  139.8963  165.2686 O.2     1  UNL1       -0.2748
     31 N         142.0451  137.4228  164.7228 N.am    1  UNL1       -0.2839
     32 H         142.1767  136.4607  164.8850 H       1  UNL1        0.1549
@<TRIPOS>BOND
     1    28    29    1
     2    29    30    2
     3    29    31   am
     4    31    22    1
     5    22    23   ar
     6    23    24   ar
     7    24    25   ar
     8    25    21    1
     9    21    20    1
    10    20    19    1
    11    19    18    1
    12    18     1    1
    13     1     2    1
    14     2     3    1
    15     3     4    1
    16     4     5    1
    17     5     8    1
    18     8     9   ar
    19     9    10   ar
    20    10    11   ar
    21    11    12   ar
    22    12    13   ar
    23    13    14    1
    24    13    15   ar
    25    15    16   ar
    26    16    17   ar
    27     5     6    1
    28     6     7    1
    29    25    26   ar
    30    26    27   ar
    31    27    22   ar
    32     7     2    1
    33    17     8   ar
    34    17    11   ar
    35    31    32    1
