@<TRIPOS>MOLECULE
*****
 36 40 0 0 0
SMALL
GASTEIGER

@<TRIPOS>ATOM
      1 N         140.8804  139.3061  160.2075 N.3     1  UNL1       -0.2750
      2 C         141.8755  138.8244  161.2211 C.3     1  UNL1        0.0737
      3 C         142.0036  139.5280  162.5396 C.3     1  UNL1        0.0374
      4 C         141.1364  140.7134  162.8445 C.3     1  UNL1        0.0800
      5 C         140.1412  141.1951  161.8308 C.3     1  UNL1        0.0374
      6 C         140.0132  140.4915  160.5123 C.3     1  UNL1        0.0737
      7 C         143.3243  137.1362  155.5000 C.2     1  UNL1        0.2499
      8 O         144.8103  137.3354  155.5458 O.2     1  UNL1       -0.2699
      9 N         142.4670  137.6250  156.6297 N.am    1  UNL1       -0.2760
     10 C         143.0956  138.3129  157.8051 C.3     1  UNL1        0.0950
     11 C         142.2383  138.8017  158.9347 C.3     1  UNL1        0.0362
     12 C         140.7523  138.6025  158.8889 C.3     1  UNL1        0.0487
     13 C         139.3108  138.6477  159.3011 C.3     1  UNL1        0.0161
     14 C         140.1236  137.9146  157.7136 C.3     1  UNL1        0.0362
     15 C         140.9810  137.4258  156.5839 C.3     1  UNL1        0.0950
     16 C         143.0219  134.1515  155.4943 C.3     1  UNL1        0.0313
     17 C         142.5444  134.9559  154.3218 C.ar    1  UNL1       -0.0148
     18 C         141.9158  134.2681  153.1464 C.ar    1  UNL1        0.0165
     19 C         141.4383  135.0725  151.9738 C.ar    1  UNL1        0.0981
     20 N         141.5895  136.5649  151.9767 N.ar    1  UNL1       -0.2480
     21 C         142.2182  137.2527  153.1521 C.ar    1  UNL1        0.0634
     22 C         142.3694  138.7451  153.1549 C.3     1  UNL1        0.0522
     23 C         142.6956  136.4483  154.3246 C.ar    1  UNL1        0.0632
     24 N         141.2645  141.4170  164.1630 N.pl3   1  UNL1       -0.2884
     25 C         142.1173  142.6456  164.2779 C.ar    1  UNL1        0.0515
     26 C         143.4963  142.5495  164.8604 C.ar    1  UNL1        0.0148
     27 C         144.3492  143.7780  164.9753 C.ar    1  UNL1        0.0013
     28 C         143.8232  145.1026  164.5077 C.ar    1  UNL1        0.0001
     29 C         142.4443  145.1987  163.9251 C.ar    1  UNL1        0.0013
     30 C         141.5914  143.9702  163.8102 C.ar    1  UNL1        0.0148
     31 C         140.5396  140.8920  165.3668 C.ar    1  UNL1        0.0515
     32 C         139.5536  139.7714  165.2188 C.ar    1  UNL1        0.0148
     33 C         138.8287  139.2464  166.4226 C.ar    1  UNL1        0.0013
     34 C         139.0899  139.8420  167.7742 C.ar    1  UNL1        0.0001
     35 C         140.0759  140.9627  167.9221 C.ar    1  UNL1        0.0013
     36 C         140.8007  141.4877  166.7184 C.ar    1  UNL1        0.0148
@<TRIPOS>BOND
     1    16    17    1
     2    17    18   ar
     3    18    19   ar
     4    19    20   ar
     5    20    21   ar
     6    21    22    1
     7    21    23   ar
     8    23     7    1
     9     7     8    2
    10     7     9   am
    11     9    10    1
    12    10    11    1
    13    11    12    1
    14    12    13    1
    15    12     1    1
    16     1     2    1
    17     2     3    1
    18     3     4    1
    19     4    24    1
    20    24    25    1
    21    25    26   ar
    22    26    27   ar
    23    27    28   ar
    24    28    29   ar
    25    29    30   ar
    26    24    31    1
    27    31    32   ar
    28    32    33   ar
    29    33    34   ar
    30    34    35   ar
    31    35    36   ar
    32     4     5    1
    33     5     6    1
    34    12    14    1
    35    14    15    1
    36    23    17   ar
    37    15     9    1
    38     6     1    1
    39    30    25   ar
    40    36    31   ar
@<TRIPOS>MOLECULE
*****
 36 40 0 0 0
SMALL
GASTEIGER

@<TRIPOS>ATOM
      1 N         140.8953  139.2952  160.2193 N.3     1  UNL1       -0.2750
      2 C         140.0978  140.5376  160.4843 C.3     1  UNL1        0.0737
      3 C         140.2276  141.2458  161.8001 C.3     1  UNL1        0.0374
      4 C         141.1550  140.7115  162.8511 C.3     1  UNL1        0.0800
      5 C         141.9525  139.4691  162.5862 C.3     1  UNL1        0.0374
      6 C         141.8227  138.7609  161.2703 C.3     1  UNL1        0.0737
      7 C         143.3320  137.1162  155.5124 C.2     1  UNL1        0.2499
      8 O         144.8176  137.3193  155.5535 O.2     1  UNL1       -0.2699
      9 N         142.4765  137.6064  156.6427 N.am    1  UNL1       -0.2760
     10 C         143.1066  138.2998  157.8142 C.3     1  UNL1        0.0950
     11 C         142.2511  138.7900  158.9445 C.3     1  UNL1        0.0362
     12 C         140.7654  138.5869  158.9035 C.3     1  UNL1        0.0487
     13 C         139.3249  138.6298  159.3194 C.3     1  UNL1        0.0161
     14 C         140.1353  137.8936  157.7321 C.3     1  UNL1        0.0362
     15 C         140.9909  137.4033  156.6016 C.3     1  UNL1        0.0950
     16 C         143.0494  134.1295  155.5113 C.3     1  UNL1        0.0313
     17 C         142.5606  134.9295  154.3404 C.ar    1  UNL1       -0.0148
     18 C         141.9306  134.2362  153.1689 C.ar    1  UNL1        0.0165
     19 C         141.4418  135.0363  151.9980 C.ar    1  UNL1        0.0981
     20 N         141.5831  136.5296  151.9985 N.ar    1  UNL1       -0.2480
     21 C         142.2131  137.2228  153.1700 C.ar    1  UNL1        0.0634
     22 C         142.3545  138.7162  153.1705 C.3     1  UNL1        0.0522
     23 C         142.7019  136.4228  154.3409 C.ar    1  UNL1        0.0632
     24 N         141.2848  141.4197  164.1670 N.pl3   1  UNL1       -0.2884
     25 C         140.5705  140.8927  165.3762 C.ar    1  UNL1        0.0515
     26 C         139.5934  139.7632  165.2370 C.ar    1  UNL1        0.0148
     27 C         138.8791  139.2361  166.4460 C.ar    1  UNL1        0.0013
     28 C         139.1419  139.8386  167.7944 C.ar    1  UNL1        0.0001
     29 C         140.1191  140.9681  167.9336 C.ar    1  UNL1        0.0013
     30 C         140.8334  141.4952  166.7245 C.ar    1  UNL1        0.0148
     31 C         142.1290  142.6551  164.2738 C.ar    1  UNL1        0.0515
     32 C         143.5136  142.5703  164.8444 C.ar    1  UNL1        0.0148
     33 C         144.3578  143.8056  164.9512 C.ar    1  UNL1        0.0013
     34 C         143.8173  145.1257  164.4873 C.ar    1  UNL1        0.0001
     35 C         142.4327  145.2105  163.9166 C.ar    1  UNL1        0.0013
     36 C         141.5886  143.9752  163.8099 C.ar    1  UNL1        0.0148
@<TRIPOS>BOND
     1    16    17    1
     2    17    18   ar
     3    18    19   ar
     4    19    20   ar
     5    20    21   ar
     6    21    22    1
     7    21    23   ar
     8    23     7    1
     9     7     8    2
    10     7     9   am
    11     9    10    1
    12    10    11    1
    13    11    12    1
    14    12    13    1
    15    12     1    1
    16     1     2    1
    17     2     3    1
    18     3     4    1
    19     4    24    1
    20    24    25    1
    21    25    26   ar
    22    26    27   ar
    23    27    28   ar
    24    28    29   ar
    25    29    30   ar
    26    24    31    1
    27    31    32   ar
    28    32    33   ar
    29    33    34   ar
    30    34    35   ar
    31    35    36   ar
    32     4     5    1
    33     5     6    1
    34    12    14    1
    35    14    15    1
    36    23    17   ar
    37    15     9    1
    38     6     1    1
    39    30    25   ar
    40    36    31   ar
@<TRIPOS>MOLECULE
*****
 36 40 0 0 0
SMALL
GASTEIGER

@<TRIPOS>ATOM
      1 N         143.2726  141.4483  162.1415 N.3     1  UNL1       -0.2750
      2 C         144.0317  140.5236  163.0463 C.3     1  UNL1        0.0737
      3 C         143.4427  140.1116  164.3628 C.3     1  UNL1        0.0374
      4 C         142.0944  140.6243  164.7746 C.3     1  UNL1        0.0800
      5 C         141.3353  141.5489  163.8698 C.3     1  UNL1        0.0374
      6 C         141.9244  141.9610  162.5533 C.3     1  UNL1        0.0737
      7 C         143.1239  141.3679  156.4133 C.2     1  UNL1        0.2499
      8 O         141.9535  140.5614  155.9340 O.2     1  UNL1       -0.2699
      9 N         143.3698  141.5320  157.8838 N.am    1  UNL1       -0.2760
     10 C         142.4454  140.8896  158.8752 C.3     1  UNL1        0.0950
     11 C         142.6913  141.0537  160.3457 C.3     1  UNL1        0.0362
     12 C         143.8617  141.8603  160.8250 C.3     1  UNL1        0.0487
     13 C         144.8274  142.5237  161.7615 C.3     1  UNL1        0.0161
     14 C         144.7861  142.5027  159.8338 C.3     1  UNL1        0.0362
     15 C         144.5402  142.3386  158.3631 C.3     1  UNL1        0.0950
     16 C         145.5298  139.8760  155.4202 C.3     1  UNL1        0.0313
     17 C         145.2513  141.2644  154.9254 C.ar    1  UNL1       -0.0148
     18 C         146.1757  141.9069  153.9341 C.ar    1  UNL1        0.0165
     19 C         145.8972  143.2952  153.4394 C.ar    1  UNL1        0.0981
     20 N         144.6943  144.0412  153.9359 N.ar    1  UNL1       -0.2480
     21 C         143.7699  143.3988  154.9272 C.ar    1  UNL1        0.0634
     22 C         142.5669  144.1447  155.4238 C.3     1  UNL1        0.0522
     23 C         144.0484  142.0104  155.4220 C.ar    1  UNL1        0.0632
     24 N         141.5054  140.2122  166.0911 N.pl3   1  UNL1       -0.2884
     25 C         140.2705  139.3616  166.1269 C.ar    1  UNL1        0.0515
     26 C         139.1737  139.6724  167.1019 C.ar    1  UNL1        0.0148
     27 C         137.9388  138.8217  167.1379 C.ar    1  UNL1        0.0013
     28 C         137.8005  137.6603  166.1988 C.ar    1  UNL1        0.0001
     29 C         138.8973  137.3495  165.2237 C.ar    1  UNL1        0.0013
     30 C         140.1322  138.2001  165.1878 C.ar    1  UNL1        0.0148
     31 C         142.1513  140.6509  167.3719 C.ar    1  UNL1        0.0515
     32 C         142.3088  139.6792  168.5036 C.ar    1  UNL1        0.0148
     33 C         142.9547  140.1179  169.7844 C.ar    1  UNL1        0.0013
     34 C         143.4430  141.5283  169.9334 C.ar    1  UNL1        0.0001
     35 C         143.2855  142.5000  168.8017 C.ar    1  UNL1        0.0013
     36 C         142.6396  142.0613  167.5209 C.ar    1  UNL1        0.0148
@<TRIPOS>BOND
     1    16    17    1
     2    17    18   ar
     3    18    19   ar
     4    19    20   ar
     5    20    21   ar
     6    21    22    1
     7    21    23   ar
     8    23     7    1
     9     7     8    2
    10     7     9   am
    11     9    10    1
    12    10    11    1
    13    11    12    1
    14    12    13    1
    15    12     1    1
    16     1     2    1
    17     2     3    1
    18     3     4    1
    19     4    24    1
    20    24    25    1
    21    25    26   ar
    22    26    27   ar
    23    27    28   ar
    24    28    29   ar
    25    29    30   ar
    26    24    31    1
    27    31    32   ar
    28    32    33   ar
    29    33    34   ar
    30    34    35   ar
    31    35    36   ar
    32     4     5    1
    33     5     6    1
    34    12    14    1
    35    14    15    1
    36    23    17   ar
    37    15     9    1
    38     6     1    1
    39    30    25   ar
    40    36    31   ar
@<TRIPOS>MOLECULE
*****
 36 40 0 0 0
SMALL
GASTEIGER

@<TRIPOS>ATOM
      1 N         143.2426  141.4438  162.1828 N.3     1  UNL1       -0.2750
      2 C         141.9277  142.0129  162.6265 C.3     1  UNL1        0.0737
      3 C         141.3387  141.6020  163.9434 C.3     1  UNL1        0.0374
      4 C         142.0648  140.6221  164.8167 C.3     1  UNL1        0.0800
      5 C         143.3798  140.0530  164.3730 C.3     1  UNL1        0.0374
      6 C         143.9688  140.4638  163.0561 C.3     1  UNL1        0.0737
      7 C         143.0874  141.3672  156.4547 C.2     1  UNL1        0.2499
      8 O         141.9138  140.5648  155.9763 O.2     1  UNL1       -0.2699
      9 N         143.3354  141.5297  157.9251 N.am    1  UNL1       -0.2760
     10 C         142.4100  140.8897  158.9171 C.3     1  UNL1        0.0950
     11 C         142.6580  141.0522  160.3874 C.3     1  UNL1        0.0362
     12 C         143.8316  141.8546  160.8659 C.3     1  UNL1        0.0487
     13 C         144.8006  142.5143  161.8017 C.3     1  UNL1        0.0161
     14 C         144.7571  142.4945  159.8740 C.3     1  UNL1        0.0362
     15 C         144.5090  142.3321  158.4035 C.3     1  UNL1        0.0950
     16 C         145.5059  139.8810  155.4841 C.3     1  UNL1        0.0313
     17 C         145.2221  141.2640  154.9774 C.ar    1  UNL1       -0.0148
     18 C         146.1475  141.9040  153.9854 C.ar    1  UNL1        0.0165
     19 C         145.8637  143.2870  153.4788 C.ar    1  UNL1        0.0981
     20 N         144.6544  144.0301  153.9641 N.ar    1  UNL1       -0.2480
     21 C         143.7290  143.3901  154.9560 C.ar    1  UNL1        0.0634
     22 C         142.5197  144.1332  155.4414 C.3     1  UNL1        0.0522
     23 C         144.0128  142.0071  155.4627 C.ar    1  UNL1        0.0632
     24 N         141.4759  140.2113  166.1337 N.pl3   1  UNL1       -0.2884
     25 C         142.1255  140.6455  167.4140 C.ar    1  UNL1        0.0515
     26 C         142.5359  142.0764  167.5991 C.ar    1  UNL1        0.0148
     27 C         143.1856  142.5108  168.8794 C.ar    1  UNL1        0.0013
     28 C         143.4249  141.5143  169.9747 C.ar    1  UNL1        0.0001
     29 C         143.0145  140.0834  169.7896 C.ar    1  UNL1        0.0013
     30 C         142.3648  139.6490  168.5093 C.ar    1  UNL1        0.0148
     31 C         140.2371  139.3661  166.1703 C.ar    1  UNL1        0.0515
     32 C         139.1562  139.6625  167.1672 C.ar    1  UNL1        0.0148
     33 C         137.9175  138.8173  167.2038 C.ar    1  UNL1        0.0013
     34 C         137.7597  137.6759  166.2435 C.ar    1  UNL1        0.0001
     35 C         138.8406  137.3795  165.2466 C.ar    1  UNL1        0.0013
     36 C         140.0793  138.2247  165.2100 C.ar    1  UNL1        0.0148
@<TRIPOS>BOND
     1    16    17    1
     2    17    18   ar
     3    18    19   ar
     4    19    20   ar
     5    20    21   ar
     6    21    22    1
     7    21    23   ar
     8    23     7    1
     9     7     8    2
    10     7     9   am
    11     9    10    1
    12    10    11    1
    13    11    12    1
    14    12    13    1
    15    12     1    1
    16     1     2    1
    17     2     3    1
    18     3     4    1
    19     4    24    1
    20    24    25    1
    21    25    26   ar
    22    26    27   ar
    23    27    28   ar
    24    28    29   ar
    25    29    30   ar
    26    24    31    1
    27    31    32   ar
    28    32    33   ar
    29    33    34   ar
    30    34    35   ar
    31    35    36   ar
    32     4     5    1
    33     5     6    1
    34    12    14    1
    35    14    15    1
    36    23    17   ar
    37    15     9    1
    38     6     1    1
    39    30    25   ar
    40    36    31   ar
@<TRIPOS>MOLECULE
*****
 36 40 0 0 0
SMALL
GASTEIGER

@<TRIPOS>ATOM
      1 N         142.1834  142.1277  161.8808 N.3     1  UNL1       -0.2750
      2 C         143.1717  141.5661  162.8594 C.3     1  UNL1        0.0737
      3 C         142.7078  141.0891  164.2038 C.3     1  UNL1        0.0374
      4 C         141.2555  141.1739  164.5695 C.3     1  UNL1        0.0800
      5 C         140.2672  141.7355  163.5909 C.3     1  UNL1        0.0374
      6 C         140.7311  142.2125  162.2466 C.3     1  UNL1        0.0737
      7 C         144.5736  141.0177  156.7920 C.2     1  UNL1        0.2499
      8 O         144.9323  139.5648  156.6910 O.2     1  UNL1       -0.2699
      9 N         143.9315  141.5467  158.0401 N.am    1  UNL1       -0.2760
     10 C         143.6481  140.6227  159.1873 C.3     1  UNL1        0.0950
     11 C         143.0060  141.1517  160.4355 C.3     1  UNL1        0.0362
     12 C         142.6473  142.6046  160.5365 C.3     1  UNL1        0.0487
     13 C         142.1275  143.8920  161.1044 C.3     1  UNL1        0.0161
     14 C         142.9306  143.5286  159.3894 C.3     1  UNL1        0.0362
     15 C         143.5728  142.9997  158.1411 C.3     1  UNL1        0.0950
     16 C         142.4760  141.5022  154.7026 C.3     1  UNL1        0.0313
     17 C         143.8082  142.1839  154.6001 C.ar    1  UNL1       -0.0148
     18 C         144.0916  143.1079  153.4530 C.ar    1  UNL1        0.0165
     19 C         145.4238  143.7896  153.3506 C.ar    1  UNL1        0.0981
     20 N         146.4726  143.5474  154.3952 N.ar    1  UNL1       -0.2480
     21 C         146.1891  142.6235  155.5424 C.ar    1  UNL1        0.0634
     22 C         147.2379  142.3812  156.5871 C.3     1  UNL1        0.0522
     23 C         144.8570  141.9417  155.6448 C.ar    1  UNL1        0.0632
     24 N         140.7916  140.6970  165.9139 N.pl3   1  UNL1       -0.2884
     25 C         141.3004  141.3576  167.1608 C.ar    1  UNL1        0.0515
     26 C         140.5578  142.5201  167.7500 C.ar    1  UNL1        0.0148
     27 C         141.0665  143.1808  168.9969 C.ar    1  UNL1        0.0013
     28 C         142.3178  142.6791  169.6545 C.ar    1  UNL1        0.0001
     29 C         143.0604  141.5166  169.0652 C.ar    1  UNL1        0.0013
     30 C         142.5517  140.8559  167.8184 C.ar    1  UNL1        0.0148
     31 C         139.8189  139.5593  166.0114 C.ar    1  UNL1        0.0515
     32 C         139.9737  138.3618  165.1214 C.ar    1  UNL1        0.0148
     33 C         139.0009  137.2241  165.2190 C.ar    1  UNL1        0.0013
     34 C         137.8735  137.2839  166.2064 C.ar    1  UNL1        0.0001
     35 C         137.7187  138.4814  167.0965 C.ar    1  UNL1        0.0013
     36 C         138.6914  139.6191  166.9989 C.ar    1  UNL1        0.0148
@<TRIPOS>BOND
     1    16    17    1
     2    17    18   ar
     3    18    19   ar
     4    19    20   ar
     5    20    21   ar
     6    21    22    1
     7    21    23   ar
     8    23     7    1
     9     7     8    2
    10     7     9   am
    11     9    10    1
    12    10    11    1
    13    11    12    1
    14    12    13    1
    15    12     1    1
    16     1     2    1
    17     2     3    1
    18     3     4    1
    19     4    24    1
    20    24    25    1
    21    25    26   ar
    22    26    27   ar
    23    27    28   ar
    24    28    29   ar
    25    29    30   ar
    26    24    31    1
    27    31    32   ar
    28    32    33   ar
    29    33    34   ar
    30    34    35   ar
    31    35    36   ar
    32     4     5    1
    33     5     6    1
    34    12    14    1
    35    14    15    1
    36    23    17   ar
    37    15     9    1
    38     6     1    1
    39    30    25   ar
    40    36    31   ar
@<TRIPOS>MOLECULE
*****
 36 40 0 0 0
SMALL
GASTEIGER

@<TRIPOS>ATOM
      1 N         140.8398  139.2601  160.1723 N.3     1  UNL1       -0.2750
      2 C         141.8010  138.7693  161.2139 C.3     1  UNL1        0.0737
      3 C         141.9206  139.4909  162.5235 C.3     1  UNL1        0.0374
      4 C         141.0789  140.7033  162.7914 C.3     1  UNL1        0.0800
      5 C         140.1177  141.1941  161.7498 C.3     1  UNL1        0.0374
      6 C         139.9980  140.4725  160.4402 C.3     1  UNL1        0.0737
      7 C         143.3095  137.0616  155.4916 C.2     1  UNL1        0.2499
      8 O         144.7929  137.2796  155.5345 O.2     1  UNL1       -0.2699
      9 N         142.4464  137.5539  156.6153 N.am    1  UNL1       -0.2760
     10 C         143.0667  138.2642  157.7819 C.3     1  UNL1        0.0950
     11 C         142.2036  138.7565  158.9055 C.3     1  UNL1        0.0362
     12 C         140.7201  138.5385  158.8627 C.3     1  UNL1        0.0487
     13 C         139.2782  138.5712  159.2747 C.3     1  UNL1        0.0161
     14 C         140.0998  137.8283  157.6962 C.3     1  UNL1        0.0362
     15 C         140.9629  137.3360  156.5725 C.3     1  UNL1        0.0950
     16 C         142.2822  138.6335  153.1520 C.3     1  UNL1        0.0313
     17 C         142.1755  137.1373  153.1553 C.ar    1  UNL1       -0.0148
     18 C         141.5552  136.4271  151.9888 C.ar    1  UNL1        0.0165
     19 C         141.4485  134.9309  151.9921 C.ar    1  UNL1        0.0981
     20 N         141.9621  134.1449  153.1619 N.ar    1  UNL1       -0.2480
     21 C         142.5824  134.8552  154.3284 C.ar    1  UNL1        0.0634
     22 C         143.0961  134.0692  155.4982 C.3     1  UNL1        0.0522
     23 C         142.6891  136.3514  154.3251 C.ar    1  UNL1        0.0632
     24 N         141.1985  141.4249  164.1010 N.pl3   1  UNL1       -0.2884
     25 C         142.0293  142.6700  164.1982 C.ar    1  UNL1        0.0515
     26 C         143.4458  142.5903  164.6851 C.ar    1  UNL1        0.0148
     27 C         144.2767  143.8353  164.7824 C.ar    1  UNL1        0.0013
     28 C         143.6910  145.1602  164.3927 C.ar    1  UNL1        0.0001
     29 C         142.2744  145.2399  163.9058 C.ar    1  UNL1        0.0013
     30 C         141.4436  143.9948  163.8086 C.ar    1  UNL1        0.0148
     31 C         140.4873  140.9013  165.3135 C.ar    1  UNL1        0.0515
     32 C         139.3968  139.8826  165.1617 C.ar    1  UNL1        0.0148
     33 C         138.6856  139.3590  166.3742 C.ar    1  UNL1        0.0013
     34 C         139.0649  139.8540  167.7384 C.ar    1  UNL1        0.0001
     35 C         140.1554  140.8727  167.8901 C.ar    1  UNL1        0.0013
     36 C         140.8666  141.3963  166.6776 C.ar    1  UNL1        0.0148
@<TRIPOS>BOND
     1    16    17    1
     2    17    18   ar
     3    18    19   ar
     4    19    20   ar
     5    20    21   ar
     6    21    22    1
     7    21    23   ar
     8    23     7    1
     9     7     8    2
    10     7     9   am
    11     9    10    1
    12    10    11    1
    13    11    12    1
    14    12    13    1
    15    12     1    1
    16     1     2    1
    17     2     3    1
    18     3     4    1
    19     4    24    1
    20    24    25    1
    21    25    26   ar
    22    26    27   ar
    23    27    28   ar
    24    28    29   ar
    25    29    30   ar
    26    24    31    1
    27    31    32   ar
    28    32    33   ar
    29    33    34   ar
    30    34    35   ar
    31    35    36   ar
    32     4     5    1
    33     5     6    1
    34    12    14    1
    35    14    15    1
    36    23    17   ar
    37    15     9    1
    38     6     1    1
    39    30    25   ar
    40    36    31   ar
@<TRIPOS>MOLECULE
*****
 36 40 0 0 0
SMALL
GASTEIGER

@<TRIPOS>ATOM
      1 N         142.1653  142.1612  161.9461 N.3     1  UNL1       -0.2750
      2 C         143.1045  141.4060  162.8391 C.3     1  UNL1        0.0737
      3 C         142.6394  140.9256  164.1817 C.3     1  UNL1        0.0374
      4 C         141.2350  141.2004  164.6314 C.3     1  UNL1        0.0800
      5 C         140.2958  141.9556  163.7384 C.3     1  UNL1        0.0374
      6 C         140.7609  142.4361  162.3957 C.3     1  UNL1        0.0737
      7 C         144.5469  141.0617  156.8509 C.2     1  UNL1        0.2499
      8 O         144.8990  139.6075  156.7436 O.2     1  UNL1       -0.2699
      9 N         143.9081  141.5883  158.1017 N.am    1  UNL1       -0.2760
     10 C         143.6213  140.6609  159.2453 C.3     1  UNL1        0.0950
     11 C         142.9825  141.1875  160.4960 C.3     1  UNL1        0.0362
     12 C         142.6305  142.6417  160.6034 C.3     1  UNL1        0.0487
     13 C         142.1169  143.9289  161.1770 C.3     1  UNL1        0.0161
     14 C         142.9172  143.5692  159.4599 C.3     1  UNL1        0.0362
     15 C         143.5561  143.0425  158.2091 C.3     1  UNL1        0.0950
     16 C         142.4196  141.6353  154.8149 C.3     1  UNL1        0.0313
     17 C         143.7701  142.2760  154.6894 C.ar    1  UNL1       -0.0148
     18 C         144.0569  143.2034  153.5460 C.ar    1  UNL1        0.0165
     19 C         145.4074  143.8441  153.4205 C.ar    1  UNL1        0.0981
     20 N         146.4711  143.5572  154.4385 N.ar    1  UNL1       -0.2480
     21 C         146.1842  142.6298  155.5819 C.ar    1  UNL1        0.0634
     22 C         147.2479  142.3429  156.6000 C.3     1  UNL1        0.0522
     23 C         144.8337  141.9892  155.7074 C.ar    1  UNL1        0.0632
     24 N         140.7698  140.7200  165.9741 N.pl3   1  UNL1       -0.2884
     25 C         139.8080  139.5728  166.0684 C.ar    1  UNL1        0.0515
     26 C         139.9490  138.3983  165.1461 C.ar    1  UNL1        0.0148
     27 C         138.9872  137.2511  165.2403 C.ar    1  UNL1        0.0013
     28 C         137.8845  137.2784  166.2568 C.ar    1  UNL1        0.0001
     29 C         137.7436  138.4529  167.1791 C.ar    1  UNL1        0.0013
     30 C         138.7054  139.6001  167.0849 C.ar    1  UNL1        0.0148
     31 C         141.2665  141.3868  167.2226 C.ar    1  UNL1        0.0515
     32 C         142.5105  140.8872  167.8956 C.ar    1  UNL1        0.0148
     33 C         143.0072  141.5540  169.1441 C.ar    1  UNL1        0.0013
     34 C         142.2600  142.7203  169.7196 C.ar    1  UNL1        0.0001
     35 C         141.0160  143.2199  169.0466 C.ar    1  UNL1        0.0013
     36 C         140.5193  142.5531  167.7981 C.ar    1  UNL1        0.0148
@<TRIPOS>BOND
     1    16    17    1
     2    17    18   ar
     3    18    19   ar
     4    19    20   ar
     5    20    21   ar
     6    21    22    1
     7    21    23   ar
     8    23     7    1
     9     7     8    2
    10     7     9   am
    11     9    10    1
    12    10    11    1
    13    11    12    1
    14    12    13    1
    15    12     1    1
    16     1     2    1
    17     2     3    1
    18     3     4    1
    19     4    24    1
    20    24    25    1
    21    25    26   ar
    22    26    27   ar
    23    27    28   ar
    24    28    29   ar
    25    29    30   ar
    26    24    31    1
    27    31    32   ar
    28    32    33   ar
    29    33    34   ar
    30    34    35   ar
    31    35    36   ar
    32     4     5    1
    33     5     6    1
    34    12    14    1
    35    14    15    1
    36    23    17   ar
    37    15     9    1
    38     6     1    1
    39    30    25   ar
    40    36    31   ar
@<TRIPOS>MOLECULE
*****
 36 40 0 0 0
SMALL
GASTEIGER

@<TRIPOS>ATOM
      1 N         140.5779  143.6191  161.8841 N.3     1  UNL1       -0.2750
      2 C         140.1032  142.5495  160.9459 C.3     1  UNL1        0.0737
      3 C         140.2902  142.7124  159.4665 C.3     1  UNL1        0.0374
      4 C         140.9518  143.9451  158.9255 C.3     1  UNL1        0.0800
      5 C         141.4265  145.0148  159.8637 C.3     1  UNL1        0.0374
      6 C         141.2396  144.8518  161.3431 C.3     1  UNL1        0.0737
      7 C         141.5806  140.6855  166.7039 C.2     1  UNL1        0.2499
      8 O         142.4400  139.4901  166.4167 O.2     1  UNL1       -0.2699
      9 N         141.1841  141.6091  165.5904 N.am    1  UNL1       -0.2760
     10 C         141.6469  141.3372  164.1897 C.3     1  UNL1        0.0950
     11 C         141.2504  142.2608  163.0763 C.3     1  UNL1        0.0362
     12 C         140.3910  143.4562  163.3635 C.3     1  UNL1        0.0487
     13 C         139.5966  144.7082  163.1370 C.3     1  UNL1        0.0161
     14 C         139.9282  143.7281  164.7641 C.3     1  UNL1        0.0362
     15 C         140.3247  142.8045  165.8777 C.3     1  UNL1        0.0950
     16 C         138.9483  139.6019  167.6509 C.3     1  UNL1        0.0313
     17 C         139.8017  140.4156  168.5781 C.ar    1  UNL1       -0.0148
     18 C         139.3390  140.6874  169.9787 C.ar    1  UNL1        0.0165
     19 C         140.1923  141.5011  170.9059 C.ar    1  UNL1        0.0981
     20 N         141.5085  142.0429  170.4325 N.ar    1  UNL1       -0.2480
     21 C         141.9712  141.7711  169.0318 C.ar    1  UNL1        0.0634
     22 C         143.2874  142.3129  168.5582 C.3     1  UNL1        0.0522
     23 C         141.1178  140.9574  168.1046 C.ar    1  UNL1        0.0632
     24 N         141.1387  144.1080  157.4461 N.pl3   1  UNL1       -0.2884
     25 C         142.3774  143.5814  156.7841 C.ar    1  UNL1        0.0515
     26 C         143.4259  142.8853  157.6003 C.ar    1  UNL1        0.0148
     27 C         144.6646  142.3587  156.9384 C.ar    1  UNL1        0.0013
     28 C         144.8549  142.5281  155.4602 C.ar    1  UNL1        0.0001
     29 C         143.8064  143.2242  154.6439 C.ar    1  UNL1        0.0013
     30 C         142.5677  143.7508  155.3059 C.ar    1  UNL1        0.0148
     31 C         140.0869  144.7976  156.6287 C.ar    1  UNL1        0.0515
     32 C         140.1598  146.2797  156.4089 C.ar    1  UNL1        0.0148
     33 C         139.1079  146.9693  155.5915 C.ar    1  UNL1        0.0013
     34 C         137.9833  146.1769  154.9940 C.ar    1  UNL1        0.0001
     35 C         137.9104  144.6949  155.2137 C.ar    1  UNL1        0.0013
     36 C         138.9622  144.0053  156.0311 C.ar    1  UNL1        0.0148
@<TRIPOS>BOND
     1    16    17    1
     2    17    18   ar
     3    18    19   ar
     4    19    20   ar
     5    20    21   ar
     6    21    22    1
     7    21    23   ar
     8    23     7    1
     9     7     8    2
    10     7     9   am
    11     9    10    1
    12    10    11    1
    13    11    12    1
    14    12    13    1
    15    12     1    1
    16     1     2    1
    17     2     3    1
    18     3     4    1
    19     4    24    1
    20    24    25    1
    21    25    26   ar
    22    26    27   ar
    23    27    28   ar
    24    28    29   ar
    25    29    30   ar
    26    24    31    1
    27    31    32   ar
    28    32    33   ar
    29    33    34   ar
    30    34    35   ar
    31    35    36   ar
    32     4     5    1
    33     5     6    1
    34    12    14    1
    35    14    15    1
    36    23    17   ar
    37    15     9    1
    38     6     1    1
    39    30    25   ar
    40    36    31   ar
@<TRIPOS>MOLECULE
*****
 36 40 0 0 0
SMALL
GASTEIGER

@<TRIPOS>ATOM
      1 N         141.1302  142.9584  161.7980 N.3     1  UNL1       -0.2750
      2 C         142.0487  141.8640  162.2545 C.3     1  UNL1        0.0737
      3 C         141.8335  141.2117  163.5880 C.3     1  UNL1        0.0374
      4 C         140.6997  141.6538  164.4649 C.3     1  UNL1        0.0800
      5 C         139.7811  142.7482  164.0084 C.3     1  UNL1        0.0374
      6 C         139.9963  143.4006  162.6749 C.3     1  UNL1        0.0737
      7 C         139.2469  144.1742  156.5239 C.2     1  UNL1        0.2499
      8 O         137.8852  143.5831  156.3080 O.2     1  UNL1       -0.2699
      9 N         139.9464  143.9864  157.8374 N.am    1  UNL1       -0.2760
     10 C         139.2843  143.2075  158.9351 C.3     1  UNL1        0.0950
     11 C         139.9838  143.0197  160.2486 C.3     1  UNL1        0.0362
     12 C         141.3454  143.6108  160.4645 C.3     1  UNL1        0.0487
     13 C         142.6322  143.9753  161.1435 C.3     1  UNL1        0.0161
     14 C         142.0075  144.3897  159.3669 C.3     1  UNL1        0.0362
     15 C         141.3080  144.5775  158.0533 C.3     1  UNL1        0.0950
     16 C         138.9735  147.1602  156.4280 C.3     1  UNL1        0.0313
     17 C         139.7723  146.4461  155.3782 C.ar    1  UNL1       -0.0148
     18 C         140.4344  147.2250  154.2806 C.ar    1  UNL1        0.0165
     19 C         141.2331  146.5109  153.2308 C.ar    1  UNL1        0.0981
     20 N         141.3698  145.0180  153.2787 N.ar    1  UNL1       -0.2480
     21 C         140.7077  144.2391  154.3763 C.ar    1  UNL1        0.0634
     22 C         140.8444  142.7460  154.4243 C.3     1  UNL1        0.0522
     23 C         139.9090  144.9532  155.4261 C.ar    1  UNL1        0.0632
     24 N         140.4845  141.0015  165.7984 N.pl3   1  UNL1       -0.2884
     25 C         139.6578  139.7539  165.8984 C.ar    1  UNL1        0.0515
     26 C         138.5556  139.6638  166.9118 C.ar    1  UNL1        0.0148
     27 C         137.7289  138.4162  167.0119 C.ar    1  UNL1        0.0013
     28 C         138.0044  137.2587  166.0986 C.ar    1  UNL1        0.0001
     29 C         139.1066  137.3488  165.0852 C.ar    1  UNL1        0.0013
     30 C         139.9333  138.5963  164.9851 C.ar    1  UNL1        0.0148
     31 C         141.0960  141.5969  167.0320 C.ar    1  UNL1        0.0515
     32 C         142.4846  141.2068  167.4438 C.ar    1  UNL1        0.0148
     33 C         143.0961  141.8021  168.6774 C.ar    1  UNL1        0.0013
     34 C         142.3191  142.7875  169.4990 C.ar    1  UNL1        0.0001
     35 C         140.9305  143.1776  169.0872 C.ar    1  UNL1        0.0013
     36 C         140.3190  142.5823  167.8536 C.ar    1  UNL1        0.0148
@<TRIPOS>BOND
     1    16    17    1
     2    17    18   ar
     3    18    19   ar
     4    19    20   ar
     5    20    21   ar
     6    21    22    1
     7    21    23   ar
     8    23     7    1
     9     7     8    2
    10     7     9   am
    11     9    10    1
    12    10    11    1
    13    11    12    1
    14    12    13    1
    15    12     1    1
    16     1     2    1
    17     2     3    1
    18     3     4    1
    19     4    24    1
    20    24    25    1
    21    25    26   ar
    22    26    27   ar
    23    27    28   ar
    24    28    29   ar
    25    29    30   ar
    26    24    31    1
    27    31    32   ar
    28    32    33   ar
    29    33    34   ar
    30    34    35   ar
    31    35    36   ar
    32     4     5    1
    33     5     6    1
    34    12    14    1
    35    14    15    1
    36    23    17   ar
    37    15     9    1
    38     6     1    1
    39    30    25   ar
    40    36    31   ar
