@<TRIPOS>MOLECULE
*****
 31 33 0 0 0
SMALL
GASTEIGER

@<TRIPOS>ATOM
      1 C         139.2813  138.6115  162.2493 C.ar    1  UNL1        0.1616
      2 C         139.3424  138.5586  160.7515 C.ar    1  UNL1        0.0501
      3 C         138.6612  139.6169  159.9353 C.ar    1  UNL1        0.0638
      4 CL        138.7223  139.5641  158.4375 Cl      1  UNL1       -0.0820
      5 C         137.9190  140.7280  160.6169 C.ar    1  UNL1        0.0501
      6 C         137.8579  140.7809  162.1147 C.ar    1  UNL1        0.1616
      7 C         138.5390  139.7227  162.9309 C.ar    1  UNL1        0.1703
      8 N         138.4779  139.7755  164.4288 N.2     1  UNL1       -0.1417
      9 N         139.6959  140.1586  165.2160 N.2     1  UNL1       -0.1447
     10 C         139.6348  140.2115  166.7138 C.ar    1  UNL1        0.1363
     11 C         138.5222  139.5194  167.4440 C.ar    1  UNL1        0.1529
     12 O         137.4706  138.7744  166.6763 O.3     1  UNL1       -0.5039
     13 C         138.4611  139.5723  168.9418 C.ar    1  UNL1        0.0382
     14 C         139.5126  140.3172  169.7095 C.ar    1  UNL1        0.0032
     15 C         140.6252  141.0094  168.9793 C.ar    1  UNL1        0.0017
     16 C         141.6767  141.7543  169.7470 C.ar    1  UNL1        0.0001
     17 C         142.7893  142.4464  169.0169 C.ar    1  UNL1        0.0000
     18 C         142.8504  142.3935  167.5191 C.ar    1  UNL1        0.0001
     19 C         141.7989  141.6486  166.7514 C.ar    1  UNL1        0.0017
     20 C         140.6863  140.9565  167.4815 C.ar    1  UNL1        0.0224
     21 H         137.5088  138.7414  165.7406 H       1  UNL1        0.2923
     22 O         139.9623  137.5533  163.0655 O.3     1  UNL1       -0.4738
     23 C         141.4321  137.6538  163.3476 C.3     1  UNL1        0.2055
     24 C         141.9329  137.5635  164.7587 C.3     1  UNL1        0.0473
     25 C         143.5248  138.3894  166.6384 C.3     1  UNL1        0.0001
     26 C         143.0234  138.4805  165.2277 C.3     1  UNL1        0.0038
     27 O         137.1157  141.8920  162.7963 O.3     1  UNL1       -0.4738
     28 C         137.8221  143.1730  163.1280 C.3     1  UNL1        0.2055
     29 C         138.2036  143.4733  164.5472 C.3     1  UNL1        0.0473
     30 C         139.2023  144.5527  164.8431 C.3     1  UNL1        0.0038
     31 C         140.6364  144.3787  164.4397 C.3     1  UNL1        0.0001
@<TRIPOS>BOND
     1    25    26    1
     2    26    24    1
     3    24    23    1
     4    23    22    1
     5    22     1    1
     6     1     2   ar
     7     2     3   ar
     8     3     4    1
     9     3     5   ar
    10     5     6   ar
    11     6    27    1
    12    27    28    1
    13    28    29    1
    14    29    30    1
    15    30    31    1
    16     6     7   ar
    17     7     8    1
    18     8     9    2
    19     9    10    1
    20    10    11   ar
    21    11    12    1
    22    11    13   ar
    23    13    14   ar
    24    14    15   ar
    25    15    16   ar
    26    16    17   ar
    27    17    18   ar
    28    18    19   ar
    29    19    20   ar
    30     7     1   ar
    31    20    10   ar
    32    20    15   ar
    33    12    21    1
@<TRIPOS>MOLECULE
*****
 31 33 0 0 0
SMALL
GASTEIGER

@<TRIPOS>ATOM
      1 C         138.2440  140.5802  161.4516 C.ar    1  UNL1        0.1616
      2 C         138.1773  140.6515  159.9548 C.ar    1  UNL1        0.0501
      3 C         138.9571  139.6776  159.1221 C.ar    1  UNL1        0.0638
      4 CL        138.8905  139.7489  157.6252 Cl      1  UNL1       -0.0820
      5 C         139.8036  138.6324  159.7862 C.ar    1  UNL1        0.0501
      6 C         139.8703  138.5611  161.2830 C.ar    1  UNL1        0.1616
      7 C         139.0905  139.5350  162.1157 C.ar    1  UNL1        0.1703
      8 N         139.1572  139.4636  163.6125 N.2     1  UNL1       -0.1417
      9 N         139.7905  140.5798  164.3891 N.2     1  UNL1       -0.1447
     10 C         139.8572  140.5085  165.8859 C.ar    1  UNL1        0.1363
     11 C         138.7653  139.8242  166.6535 C.ar    1  UNL1        0.1529
     12 O         137.6065  139.2111  165.9244 O.3     1  UNL1       -0.5039
     13 C         138.8320  139.7528  168.1504 C.ar    1  UNL1        0.0382
     14 C         139.9906  140.3658  168.8795 C.ar    1  UNL1        0.0032
     15 C         141.0826  141.0502  168.1119 C.ar    1  UNL1        0.0017
     16 C         142.2413  141.6632  168.8411 C.ar    1  UNL1        0.0001
     17 C         143.3332  142.3475  168.0734 C.ar    1  UNL1        0.0000
     18 C         143.2665  142.4188  166.5766 C.ar    1  UNL1        0.0001
     19 C         142.1079  141.8058  165.8474 C.ar    1  UNL1        0.0017
     20 C         141.0160  141.1215  166.6151 C.ar    1  UNL1        0.0224
     21 H         137.5649  139.2557  164.9893 H       1  UNL1        0.2923
     22 O         137.4642  141.5540  162.2844 O.3     1  UNL1       -0.4738
     23 C         137.7430  143.0240  162.1773 C.3     1  UNL1        0.2055
     24 C         138.7057  143.6758  163.1251 C.3     1  UNL1        0.0473
     25 C         139.1849  144.2244  165.6189 C.3     1  UNL1        0.0001
     26 C         138.2303  144.1572  164.4638 C.3     1  UNL1        0.0038
     27 O         140.7169  137.5159  161.9471 O.3     1  UNL1       -0.4738
     28 C         142.1772  137.7689  162.1779 C.3     1  UNL1        0.2055
     29 C         142.6243  138.5250  163.3938 C.3     1  UNL1        0.0473
     30 C         142.3199  137.9919  164.7625 C.3     1  UNL1        0.0038
     31 C         143.2391  138.2972  165.9078 C.3     1  UNL1        0.0001
@<TRIPOS>BOND
     1    25    26    1
     2    26    24    1
     3    24    23    1
     4    23    22    1
     5    22     1    1
     6     1     2   ar
     7     2     3   ar
     8     3     4    1
     9     3     5   ar
    10     5     6   ar
    11     6    27    1
    12    27    28    1
    13    28    29    1
    14    29    30    1
    15    30    31    1
    16     6     7   ar
    17     7     8    1
    18     8     9    2
    19     9    10    1
    20    10    11   ar
    21    11    12    1
    22    11    13   ar
    23    13    14   ar
    24    14    15   ar
    25    15    16   ar
    26    16    17   ar
    27    17    18   ar
    28    18    19   ar
    29    19    20   ar
    30     7     1   ar
    31    20    10   ar
    32    20    15   ar
    33    12    21    1
@<TRIPOS>MOLECULE
*****
 31 33 0 0 0
SMALL
GASTEIGER

@<TRIPOS>ATOM
      1 C         137.8514  141.3201  163.5464 C.ar    1  UNL1        0.1616
      2 C         137.6549  141.2002  162.0642 C.ar    1  UNL1        0.0501
      3 C         137.9291  139.8968  161.3742 C.ar    1  UNL1        0.0638
      4 CL        137.7326  139.7769  159.8920 Cl      1  UNL1       -0.0820
      5 C         138.3998  138.7133  162.1665 C.ar    1  UNL1        0.0501
      6 C         138.5964  138.8332  163.6488 C.ar    1  UNL1        0.1616
      7 C         138.3221  140.1366  164.3387 C.ar    1  UNL1        0.1703
      8 N         138.5187  140.2564  165.8209 N.2     1  UNL1       -0.1417
      9 N         139.9047  140.2922  166.3933 N.2     1  UNL1       -0.1447
     10 C         140.1012  140.4121  167.8755 C.ar    1  UNL1        0.1363
     11 C         139.0937  139.8201  168.8160 C.ar    1  UNL1        0.1529
     12 O         137.8896  139.1081  168.2742 O.3     1  UNL1       -0.5039
     13 C         139.2902  139.9399  170.2982 C.ar    1  UNL1        0.0382
     14 C         140.4942  140.6518  170.8400 C.ar    1  UNL1        0.0032
     15 C         141.5018  141.2439  169.8995 C.ar    1  UNL1        0.0017
     16 C         142.7057  141.9558  170.4413 C.ar    1  UNL1        0.0001
     17 C         143.7132  142.5478  169.5009 C.ar    1  UNL1        0.0000
     18 C         143.5167  142.4279  168.0186 C.ar    1  UNL1        0.0001
     19 C         142.3127  141.7160  167.4769 C.ar    1  UNL1        0.0017
     20 C         141.3053  141.1240  168.4173 C.ar    1  UNL1        0.0224
     21 H         137.7669  139.0332  167.3483 H       1  UNL1        0.2923
     22 O         137.5772  142.6235  164.2363 O.3     1  UNL1       -0.4738
     23 C         138.1730  143.8933  163.7048 C.3     1  UNL1        0.2055
     24 C         139.3108  144.5489  164.4300 C.3     1  UNL1        0.0473
     25 C         141.2025  142.8049  164.0696 C.3     1  UNL1        0.0001
     26 C         140.4306  143.7150  164.9783 C.3     1  UNL1        0.0038
     27 O         139.0671  137.6497  164.4411 O.3     1  UNL1       -0.4738
     28 C         140.5340  137.4352  164.6691 C.3     1  UNL1        0.2055
     29 C         141.5379  138.1285  163.7965 C.3     1  UNL1        0.0473
     30 C         142.5152  139.0941  164.3987 C.3     1  UNL1        0.0038
     31 C         143.3841  138.6656  165.5438 C.3     1  UNL1        0.0001
@<TRIPOS>BOND
     1    25    26    1
     2    26    24    1
     3    24    23    1
     4    23    22    1
     5    22     1    1
     6     1     2   ar
     7     2     3   ar
     8     3     4    1
     9     3     5   ar
    10     5     6   ar
    11     6    27    1
    12    27    28    1
    13    28    29    1
    14    29    30    1
    15    30    31    1
    16     6     7   ar
    17     7     8    1
    18     8     9    2
    19     9    10    1
    20    10    11   ar
    21    11    12    1
    22    11    13   ar
    23    13    14   ar
    24    14    15   ar
    25    15    16   ar
    26    16    17   ar
    27    17    18   ar
    28    18    19   ar
    29    19    20   ar
    30     7     1   ar
    31    20    10   ar
    32    20    15   ar
    33    12    21    1
@<TRIPOS>MOLECULE
*****
 31 33 0 0 0
SMALL
GASTEIGER

@<TRIPOS>ATOM
      1 C         141.1676  143.8524  161.2059 C.ar    1  UNL1        0.1616
      2 C         141.3106  144.0265  159.7230 C.ar    1  UNL1        0.0501
      3 C         142.5674  143.5843  159.0336 C.ar    1  UNL1        0.0638
      4 CL        142.7104  143.7585  157.5506 Cl      1  UNL1       -0.0820
      5 C         143.6810  142.9680  159.8273 C.ar    1  UNL1        0.0501
      6 C         143.5380  142.7939  161.3102 C.ar    1  UNL1        0.1616
      7 C         142.2813  143.2360  161.9996 C.ar    1  UNL1        0.1703
      8 N         142.1383  143.0619  163.4826 N.2     1  UNL1       -0.1417
      9 N         141.7159  141.7371  164.0449 N.2     1  UNL1       -0.1447
     10 C         141.5729  141.5629  165.5278 C.ar    1  UNL1        0.1363
     11 C         142.5719  142.1875  166.4561 C.ar    1  UNL1        0.1529
     12 O         143.7141  142.9862  165.9015 O.3     1  UNL1       -0.5039
     13 C         142.4289  142.0134  167.9391 C.ar    1  UNL1        0.0382
     14 C         141.2869  141.2147  168.4938 C.ar    1  UNL1        0.0032
     15 C         140.2877  140.5900  167.5655 C.ar    1  UNL1        0.0017
     16 C         139.1457  139.7913  168.1202 C.ar    1  UNL1        0.0001
     17 C         138.1466  139.1668  167.1919 C.ar    1  UNL1        0.0000
     18 C         138.2896  139.3409  165.7089 C.ar    1  UNL1        0.0001
     19 C         139.4317  140.1396  165.1542 C.ar    1  UNL1        0.0017
     20 C         140.4307  140.7642  166.0825 C.ar    1  UNL1        0.0224
     21 H         143.8034  143.0950  164.9751 H       1  UNL1        0.2923
     22 O         139.9109  144.2945  161.8953 O.3     1  UNL1       -0.4738
     23 C         138.7750  143.3314  162.0741 C.3     1  UNL1        0.2055
     24 C         137.7423  143.5781  163.1337 C.3     1  UNL1        0.0473
     25 C         138.8112  144.6814  165.2289 C.3     1  UNL1        0.0001
     26 C         138.1245  143.5148  164.5828 C.3     1  UNL1        0.0038
     27 O         144.6518  142.1776  162.1039 O.3     1  UNL1       -0.4738
     28 C         144.6846  140.6941  162.3234 C.3     1  UNL1        0.2055
     29 C         144.8778  140.1446  163.7056 C.3     1  UNL1        0.0473
     30 C         143.9840  139.0503  164.2094 C.3     1  UNL1        0.0038
     31 C         143.9199  138.7505  165.6777 C.3     1  UNL1        0.0001
@<TRIPOS>BOND
     1    25    26    1
     2    26    24    1
     3    24    23    1
     4    23    22    1
     5    22     1    1
     6     1     2   ar
     7     2     3   ar
     8     3     4    1
     9     3     5   ar
    10     5     6   ar
    11     6    27    1
    12    27    28    1
    13    28    29    1
    14    29    30    1
    15    30    31    1
    16     6     7   ar
    17     7     8    1
    18     8     9    2
    19     9    10    1
    20    10    11   ar
    21    11    12    1
    22    11    13   ar
    23    13    14   ar
    24    14    15   ar
    25    15    16   ar
    26    16    17   ar
    27    17    18   ar
    28    18    19   ar
    29    19    20   ar
    30     7     1   ar
    31    20    10   ar
    32    20    15   ar
    33    12    21    1
@<TRIPOS>MOLECULE
*****
 31 33 0 0 0
SMALL
GASTEIGER

@<TRIPOS>ATOM
      1 C         140.3192  138.3234  162.7824 C.ar    1  UNL1        0.1616
      2 C         140.7538  138.1020  161.3640 C.ar    1  UNL1        0.0501
      3 C         142.2144  138.0720  161.0231 C.ar    1  UNL1        0.0638
      4 CL        142.6490  137.8506  159.6047 Cl      1  UNL1       -0.0820
      5 C         143.2401  138.2633  162.1007 C.ar    1  UNL1        0.0501
      6 C         142.8054  138.4847  163.5192 C.ar    1  UNL1        0.1616
      7 C         141.3450  138.5148  163.8601 C.ar    1  UNL1        0.1703
      8 N         140.9103  138.7362  165.2785 N.2     1  UNL1       -0.1417
      9 N         140.9473  140.1151  165.8677 N.2     1  UNL1       -0.1447
     10 C         140.5126  140.3365  167.2862 C.ar    1  UNL1        0.1363
     11 C         139.2088  139.7726  167.7678 C.ar    1  UNL1        0.1529
     12 O         138.3395  138.9873  166.8309 O.3     1  UNL1       -0.5039
     13 C         138.7741  139.9940  169.1862 C.ar    1  UNL1        0.0382
     14 C         139.6433  140.7793  170.1231 C.ar    1  UNL1        0.0032
     15 C         140.9472  141.3432  169.6416 C.ar    1  UNL1        0.0017
     16 C         141.8164  142.1285  170.5785 C.ar    1  UNL1        0.0001
     17 C         143.1202  142.6924  170.0969 C.ar    1  UNL1        0.0000
     18 C         143.5549  142.4710  168.6784 C.ar    1  UNL1        0.0001
     19 C         142.6858  141.6857  167.7416 C.ar    1  UNL1        0.0017
     20 C         141.3819  141.1218  168.2231 C.ar    1  UNL1        0.0224
     21 H         138.6111  138.8489  165.9448 H       1  UNL1        0.2923
     22 O         138.8588  138.3535  163.1233 O.3     1  UNL1       -0.4738
     23 C         138.0464  139.5809  162.8346 C.3     1  UNL1        0.2055
     24 C         137.8879  140.6397  163.8853 C.3     1  UNL1        0.0473
     25 C         138.6925  142.9265  164.8197 C.3     1  UNL1        0.0001
     26 C         138.4446  142.0135  163.6557 C.3     1  UNL1        0.0038
     27 O         143.8312  138.6761  164.5968 O.3     1  UNL1       -0.4738
     28 C         144.6730  139.9174  164.6191 C.3     1  UNL1        0.2055
     29 C         144.0521  141.2500  164.3213 C.3     1  UNL1        0.0473
     30 C         144.7527  142.5119  164.7298 C.3     1  UNL1        0.0038
     31 C         144.1015  143.8420  164.4917 C.3     1  UNL1        0.0001
@<TRIPOS>BOND
     1    25    26    1
     2    26    24    1
     3    24    23    1
     4    23    22    1
     5    22     1    1
     6     1     2   ar
     7     2     3   ar
     8     3     4    1
     9     3     5   ar
    10     5     6   ar
    11     6    27    1
    12    27    28    1
    13    28    29    1
    14    29    30    1
    15    30    31    1
    16     6     7   ar
    17     7     8    1
    18     8     9    2
    19     9    10    1
    20    10    11   ar
    21    11    12    1
    22    11    13   ar
    23    13    14   ar
    24    14    15   ar
    25    15    16   ar
    26    16    17   ar
    27    17    18   ar
    28    18    19   ar
    29    19    20   ar
    30     7     1   ar
    31    20    10   ar
    32    20    15   ar
    33    12    21    1
@<TRIPOS>MOLECULE
*****
 31 33 0 0 0
SMALL
GASTEIGER

@<TRIPOS>ATOM
      1 C         141.7088  141.3543  160.6107 C.ar    1  UNL1        0.1616
      2 C         142.4181  142.0404  159.4811 C.ar    1  UNL1        0.0501
      3 C         142.0176  143.4283  159.0766 C.ar    1  UNL1        0.0638
      4 CL        142.7269  144.1144  157.9469 Cl      1  UNL1       -0.0820
      5 C         140.9077  144.1299  159.8016 C.ar    1  UNL1        0.0501
      6 C         140.1983  143.4438  160.9313 C.ar    1  UNL1        0.1616
      7 C         140.5988  142.0561  161.3358 C.ar    1  UNL1        0.1703
      8 N         139.8895  141.3700  162.4655 N.2     1  UNL1       -0.1417
      9 N         140.5876  141.1693  163.7778 N.2     1  UNL1       -0.1447
     10 C         139.8782  140.4832  164.9075 C.ar    1  UNL1        0.1363
     11 C         138.9263  139.3594  164.6231 C.ar    1  UNL1        0.1529
     12 O         138.6837  138.9217  163.2090 O.3     1  UNL1       -0.5039
     13 C         138.2169  138.6733  165.7527 C.ar    1  UNL1        0.0382
     14 C         138.4595  139.1110  167.1668 C.ar    1  UNL1        0.0032
     15 C         139.4114  140.2349  167.4512 C.ar    1  UNL1        0.0017
     16 C         139.6540  140.6726  168.8653 C.ar    1  UNL1        0.0001
     17 C         140.6059  141.7964  169.1497 C.ar    1  UNL1        0.0000
     18 C         141.3152  142.4825  168.0200 C.ar    1  UNL1        0.0001
     19 C         141.0727  142.0448  166.6060 C.ar    1  UNL1        0.0017
     20 C         140.1208  140.9210  166.3216 C.ar    1  UNL1        0.0224
     21 H         139.1268  139.3503  162.5033 H       1  UNL1        0.2923
     22 O         142.1093  139.9666  161.0153 O.3     1  UNL1       -0.4738
     23 C         143.2685  139.7616  161.9449 C.3     1  UNL1        0.2055
     24 C         143.1729  138.7540  163.0520 C.3     1  UNL1        0.0473
     25 C         142.8897  138.3637  165.6049 C.3     1  UNL1        0.0001
     26 C         143.4479  139.1667  164.4676 C.3     1  UNL1        0.0038
     27 O         139.0884  144.1455  161.6564 O.3     1  UNL1       -0.4738
     28 C         139.4069  145.1902  162.6845 C.3     1  UNL1        0.2055
     29 C         139.8008  144.7807  164.0727 C.3     1  UNL1        0.0473
     30 C         138.7473  144.3924  165.0675 C.3     1  UNL1        0.0038
     31 C         137.7027  143.3815  164.6976 C.3     1  UNL1        0.0001
@<TRIPOS>BOND
     1    25    26    1
     2    26    24    1
     3    24    23    1
     4    23    22    1
     5    22     1    1
     6     1     2   ar
     7     2     3   ar
     8     3     4    1
     9     3     5   ar
    10     5     6   ar
    11     6    27    1
    12    27    28    1
    13    28    29    1
    14    29    30    1
    15    30    31    1
    16     6     7   ar
    17     7     8    1
    18     8     9    2
    19     9    10    1
    20    10    11   ar
    21    11    12    1
    22    11    13   ar
    23    13    14   ar
    24    14    15   ar
    25    15    16   ar
    26    16    17   ar
    27    17    18   ar
    28    18    19   ar
    29    19    20   ar
    30     7     1   ar
    31    20    10   ar
    32    20    15   ar
    33    12    21    1
@<TRIPOS>MOLECULE
*****
 31 33 0 0 0
SMALL
GASTEIGER

@<TRIPOS>ATOM
      1 C         142.8619  141.7212  161.9496 C.ar    1  UNL1        0.1616
      2 C         143.4604  142.4878  160.8077 C.ar    1  UNL1        0.0501
      3 C         142.5903  142.9494  159.6763 C.ar    1  UNL1        0.0638
      4 CL        143.1888  143.7160  158.5344 Cl      1  UNL1       -0.0820
      5 C         141.1217  142.6443  159.6869 C.ar    1  UNL1        0.0501
      6 C         140.5232  141.8777  160.8289 C.ar    1  UNL1        0.1616
      7 C         141.3932  141.4161  161.9602 C.ar    1  UNL1        0.1703
      8 N         140.7947  140.6495  163.1021 N.2     1  UNL1       -0.1417
      9 N         140.1583  141.3824  164.2457 N.2     1  UNL1       -0.1447
     10 C         139.5598  140.6157  165.3877 C.ar    1  UNL1        0.1363
     11 C         138.6707  139.4385  165.1165 C.ar    1  UNL1        0.1529
     12 O         138.3802  139.0277  163.7033 O.3     1  UNL1       -0.5039
     13 C         138.0722  138.6718  166.2585 C.ar    1  UNL1        0.0382
     14 C         138.3627  139.0825  167.6716 C.ar    1  UNL1        0.0032
     15 C         139.2518  140.2598  167.9428 C.ar    1  UNL1        0.0017
     16 C         139.5423  140.6705  169.3559 C.ar    1  UNL1        0.0001
     17 C         140.4313  141.8477  169.6271 C.ar    1  UNL1        0.0000
     18 C         141.0299  142.6144  168.4851 C.ar    1  UNL1        0.0001
     19 C         140.7394  142.2037  167.0720 C.ar    1  UNL1        0.0017
     20 C         139.8503  141.0264  166.8009 C.ar    1  UNL1        0.0224
     21 H         138.7541  139.5066  162.9900 H       1  UNL1        0.2923
     22 O         143.7319  141.2596  163.0810 O.3     1  UNL1       -0.4738
     23 C         143.7454  142.0187  164.3746 C.3     1  UNL1        0.2055
     24 C         144.4013  143.3659  164.4469 C.3     1  UNL1        0.0473
     25 C         142.1126  144.5193  164.0214 C.3     1  UNL1        0.0001
     26 C         143.6029  144.6047  164.1678 C.3     1  UNL1        0.0038
     27 O         139.0545  141.5726  160.8394 O.3     1  UNL1       -0.4738
     28 C         138.0893  142.5522  161.4383 C.3     1  UNL1        0.2055
     29 C         138.5986  143.7060  162.2502 C.3     1  UNL1        0.0473
     30 C         137.7977  144.2182  163.4105 C.3     1  UNL1        0.0038
     31 C         138.4739  144.5142  164.7162 C.3     1  UNL1        0.0001
@<TRIPOS>BOND
     1    25    26    1
     2    26    24    1
     3    24    23    1
     4    23    22    1
     5    22     1    1
     6     1     2   ar
     7     2     3   ar
     8     3     4    1
     9     3     5   ar
    10     5     6   ar
    11     6    27    1
    12    27    28    1
    13    28    29    1
    14    29    30    1
    15    30    31    1
    16     6     7   ar
    17     7     8    1
    18     8     9    2
    19     9    10    1
    20    10    11   ar
    21    11    12    1
    22    11    13   ar
    23    13    14   ar
    24    14    15   ar
    25    15    16   ar
    26    16    17   ar
    27    17    18   ar
    28    18    19   ar
    29    19    20   ar
    30     7     1   ar
    31    20    10   ar
    32    20    15   ar
    33    12    21    1
@<TRIPOS>MOLECULE
*****
 31 33 0 0 0
SMALL
GASTEIGER

@<TRIPOS>ATOM
      1 C         139.1768  141.5818  161.3044 C.ar    1  UNL1        0.1616
      2 C         138.7344  142.3402  160.0883 C.ar    1  UNL1        0.0501
      3 C         139.7529  142.9782  159.1906 C.ar    1  UNL1        0.0638
      4 CL        139.3106  143.7367  157.9745 Cl      1  UNL1       -0.0820
      5 C         141.2137  142.8577  159.5091 C.ar    1  UNL1        0.0501
      6 C         141.6561  142.0992  160.7253 C.ar    1  UNL1        0.1616
      7 C         140.6377  141.4613  161.6229 C.ar    1  UNL1        0.1703
      8 N         141.0801  140.7028  162.8391 N.2     1  UNL1       -0.1417
      9 N         141.5293  141.4443  164.0632 N.2     1  UNL1       -0.1447
     10 C         141.9717  140.6859  165.2793 C.ar    1  UNL1        0.1363
     11 C         142.7716  139.4261  165.1277 C.ar    1  UNL1        0.1529
     12 O         143.1293  138.9247  163.7599 O.3     1  UNL1       -0.5039
     13 C         143.2140  138.6676  166.3439 C.ar    1  UNL1        0.0382
     14 C         142.8565  139.1690  167.7116 C.ar    1  UNL1        0.0032
     15 C         142.0565  140.4288  167.8633 C.ar    1  UNL1        0.0017
     16 C         141.6989  140.9301  169.2310 C.ar    1  UNL1        0.0001
     17 C         140.8990  142.1899  169.3826 C.ar    1  UNL1        0.0000
     18 C         140.4566  142.9483  168.1665 C.ar    1  UNL1        0.0001
     19 C         140.8141  142.4470  166.7987 C.ar    1  UNL1        0.0017
     20 C         141.6141  141.1872  166.6471 C.ar    1  UNL1        0.0224
     21 H         142.8529  139.3985  163.0002 H       1  UNL1        0.2923
     22 O         138.1584  140.9438  162.2021 O.3     1  UNL1       -0.4738
     23 C         137.3828  141.7843  163.1726 C.3     1  UNL1        0.2055
     24 C         138.1002  142.5345  164.2555 C.3     1  UNL1        0.0473
     25 C         138.4631  144.8451  165.3865 C.3     1  UNL1        0.0001
     26 C         138.2777  144.0200  164.1476 C.3     1  UNL1        0.0038
     27 O         143.1170  141.9788  161.0438 O.3     1  UNL1       -0.4738
     28 C         143.8489  143.1358  161.6566 C.3     1  UNL1        0.2055
     29 C         144.5117  142.9808  162.9932 C.3     1  UNL1        0.0473
     30 C         144.1025  143.8575  164.1395 C.3     1  UNL1        0.0038
     31 C         144.4658  143.4746  165.5435 C.3     1  UNL1        0.0001
@<TRIPOS>BOND
     1    25    26    1
     2    26    24    1
     3    24    23    1
     4    23    22    1
     5    22     1    1
     6     1     2   ar
     7     2     3   ar
     8     3     4    1
     9     3     5   ar
    10     5     6   ar
    11     6    27    1
    12    27    28    1
    13    28    29    1
    14    29    30    1
    15    30    31    1
    16     6     7   ar
    17     7     8    1
    18     8     9    2
    19     9    10    1
    20    10    11   ar
    21    11    12    1
    22    11    13   ar
    23    13    14   ar
    24    14    15   ar
    25    15    16   ar
    26    16    17   ar
    27    17    18   ar
    28    18    19   ar
    29    19    20   ar
    30     7     1   ar
    31    20    10   ar
    32    20    15   ar
    33    12    21    1
@<TRIPOS>MOLECULE
*****
 31 33 0 0 0
SMALL
GASTEIGER

@<TRIPOS>ATOM
      1 C         142.8341  143.2961  160.7158 C.ar    1  UNL1        0.1616
      2 C         142.8815  143.3507  159.2175 C.ar    1  UNL1        0.0501
      3 C         141.6530  143.0361  158.4163 C.ar    1  UNL1        0.0638
      4 CL        141.7004  143.0907  156.9181 Cl      1  UNL1       -0.0820
      5 C         140.3772  142.6669  159.1134 C.ar    1  UNL1        0.0501
      6 C         140.3298  142.6123  160.6117 C.ar    1  UNL1        0.1616
      7 C         141.5582  142.9269  161.4128 C.ar    1  UNL1        0.1703
      8 N         141.5108  142.8722  162.9111 N.2     1  UNL1       -0.1417
      9 N         141.2799  141.5637  163.6070 N.2     1  UNL1       -0.1447
     10 C         141.2325  141.5091  165.1052 C.ar    1  UNL1        0.1363
     11 C         142.2215  142.2930  165.9159 C.ar    1  UNL1        0.1529
     12 O         143.2579  143.1316  165.2284 O.3     1  UNL1       -0.5039
     13 C         142.1741  142.2384  167.4142 C.ar    1  UNL1        0.0382
     14 C         141.1377  141.3999  168.1017 C.ar    1  UNL1        0.0032
     15 C         140.1487  140.6159  167.2910 C.ar    1  UNL1        0.0017
     16 C         139.1123  139.7773  167.9786 C.ar    1  UNL1        0.0001
     17 C         138.1234  138.9934  167.1678 C.ar    1  UNL1        0.0000
     18 C         138.1707  139.0480  165.6696 C.ar    1  UNL1        0.0001
     19 C         139.2071  139.8865  164.9820 C.ar    1  UNL1        0.0017
     20 C         140.1961  140.6705  165.7928 C.ar    1  UNL1        0.0224
     21 H         143.2875  143.1658  164.2925 H       1  UNL1        0.2923
     22 O         144.0626  143.6106  161.5170 O.3     1  UNL1       -0.4738
     23 C         145.1614  142.5964  161.6345 C.3     1  UNL1        0.2055
     24 C         145.3434  141.8325  162.9126 C.3     1  UNL1        0.0473
     25 C         144.9002  139.7132  164.3484 C.3     1  UNL1        0.0001
     26 C         144.7685  140.4540  163.0509 C.3     1  UNL1        0.0038
     27 O         139.0539  142.2431  161.3087 O.3     1  UNL1       -0.4738
     28 C         138.3100  143.2727  162.1064 C.3     1  UNL1        0.2055
     29 C         137.5943  142.8746  163.3631 C.3     1  UNL1        0.0473
     30 C         137.9957  143.4759  164.6774 C.3     1  UNL1        0.0038
     31 C         139.0019  144.5876  164.7175 C.3     1  UNL1        0.0001
@<TRIPOS>BOND
     1    25    26    1
     2    26    24    1
     3    24    23    1
     4    23    22    1
     5    22     1    1
     6     1     2   ar
     7     2     3   ar
     8     3     4    1
     9     3     5   ar
    10     5     6   ar
    11     6    27    1
    12    27    28    1
    13    28    29    1
    14    29    30    1
    15    30    31    1
    16     6     7   ar
    17     7     8    1
    18     8     9    2
    19     9    10    1
    20    10    11   ar
    21    11    12    1
    22    11    13   ar
    23    13    14   ar
    24    14    15   ar
    25    15    16   ar
    26    16    17   ar
    27    17    18   ar
    28    18    19   ar
    29    19    20   ar
    30     7     1   ar
    31    20    10   ar
    32    20    15   ar
    33    12    21    1
