@<TRIPOS>MOLECULE
*****
 37 41 0 0 0
SMALL
GASTEIGER

@<TRIPOS>ATOM
      1 N         143.0973  136.9499  159.0488 N.am    1  UNL1       -0.3018
      2 C         142.5111  137.5637  157.8121 C.2     1  UNL1        0.2425
      3 O         141.7605  138.8593  157.9012 O.2     1  UNL1       -0.2733
      4 H         143.5900  136.0995  158.9903 H       1  UNL1        0.1495
      5 N         142.7005  138.5960  162.2499 N.3     1  UNL1       -0.2711
      6 C         143.8676  138.2420  161.3768 C.3     1  UNL1        0.0933
      7 C         142.9329  137.6317  160.3747 C.3     1  UNL1        0.1035
      8 C         141.7658  137.9858  161.2478 C.3     1  UNL1        0.0933
      9 C         142.2071  140.6416  166.2276 C.3     1  UNL1        0.0301
     10 C         142.3305  141.4574  164.9748 C.3     1  UNL1        0.0063
     11 C         142.4949  140.7755  163.6490 C.3     1  UNL1        0.0163
     12 C         142.5360  139.2779  163.5758 C.3     1  UNL1        0.0576
     13 C         142.4127  138.4621  164.8285 C.3     1  UNL1        0.0163
     14 C         142.2482  139.1440  166.1544 C.3     1  UNL1        0.0063
     15 C         140.4744  143.8587  170.0392 C.3     1  UNL1        0.0594
     16 C         141.2462  142.8023  169.3055 C.ar    1  UNL1        0.0884
     17 N         142.3328  141.9438  169.8819 N.ar    1  UNL1       -0.2415
     18 C         142.8251  141.0299  168.7991 C.ar    1  UNL1        0.1012
     19 C         142.0427  141.3235  167.5534 C.ar    1  UNL1        0.0271
     20 S         141.0669  142.4190  167.8664 S.2     1  UNL1       -0.0751
     21 C         142.6756  136.8819  156.4862 C.3     1  UNL1        0.1747
     22 N         142.0183  135.5565  156.2377 N.pl3   1  UNL1       -0.3093
     23 H         141.1024  135.5210  155.8784 H       1  UNL1        0.1487
     24 C         142.7565  134.2855  156.5366 C.ar    1  UNL1        0.1500
     25 N         143.9667  134.1540  157.4131 N.ar    1  UNL1       -0.1544
     26 N         144.3723  132.7100  157.4297 N.ar    1  UNL1       -0.2476
     27 C         145.5335  132.1289  158.1806 C.3     1  UNL1        0.1537
     28 C         143.4128  131.9490  156.5636 C.ar    1  UNL1        0.0807
     29 C         143.3193  130.4952  156.2062 C.ar    1  UNL1        0.0188
     30 C         142.2273  130.0151  155.2969 C.ar    1  UNL1        0.0054
     31 C         141.2287  130.9889  154.7449 C.ar    1  UNL1        0.0716
     32 C         141.3221  132.4426  155.1023 C.ar    1  UNL1        0.0082
     33 C         142.4142  132.9227  156.0116 C.ar    1  UNL1        0.0503
     34 C         140.1366  130.5087  153.8355 C.3     1  UNL1        0.4186
     35 F         139.0446  130.0286  152.9261 F       1  UNL1       -0.1659
     36 F         139.1352  130.7034  154.9352 F       1  UNL1       -0.1659
     37 F         141.1380  130.3140  152.7359 F       1  UNL1       -0.1659
@<TRIPOS>BOND
     1    15    16    1
     2    16    17   ar
     3    17    18   ar
     4    18    19   ar
     5     9    19    1
     6     9    10    1
     7    10    11    1
     8    11    12    1
     9    12     5    1
    10     5     6    1
    11     6     7    1
    12     7     1    1
    13     1     2   am
    14     2     3    2
    15     2    21    1
    16    21    22    1
    17    22    24    1
    18    24    25   ar
    19    25    26   ar
    20    26    27    1
    21    26    28   ar
    22    28    29   ar
    23    29    30   ar
    24    30    31   ar
    25    31    34    1
    26    34    35    1
    27    34    36    1
    28    34    37    1
    29    31    32   ar
    30    32    33   ar
    31     7     8    1
    32    12    13    1
    33    13    14    1
    34    19    20   ar
    35    20    16   ar
    36    14     9    1
    37     8     5    1
    38    33    24   ar
    39    33    28   ar
    40     1     4    1
    41    22    23    1
@<TRIPOS>MOLECULE
*****
 37 41 0 0 0
SMALL
GASTEIGER

@<TRIPOS>ATOM
      1 N         139.3353  142.9854  161.3596 N.am    1  UNL1       -0.3018
      2 C         138.1093  142.8643  162.2152 C.2     1  UNL1        0.2425
      3 O         137.2928  141.6065  162.1821 O.2     1  UNL1       -0.2733
      4 H         139.8712  143.8109  161.3813 H       1  UNL1        0.1495
      5 N         140.3240  140.2408  159.2139 N.3     1  UNL1       -0.2711
      6 C         140.0131  141.6930  159.0031 C.3     1  UNL1        0.0933
      7 C         139.7449  141.8485  160.4708 C.3     1  UNL1        0.1035
      8 C         140.0557  140.3963  160.6815 C.3     1  UNL1        0.0933
      9 C         141.5525  136.8301  156.5477 C.3     1  UNL1        0.0301
     10 C         140.1203  137.2746  156.5853 C.3     1  UNL1        0.0063
     11 C         139.7108  138.4114  157.4740 C.3     1  UNL1        0.0163
     12 C         140.7335  139.1039  158.3252 C.3     1  UNL1        0.0576
     13 C         142.1657  138.6595  158.2876 C.3     1  UNL1        0.0163
     14 C         142.5752  137.5226  157.3989 C.3     1  UNL1        0.0063
     15 C         143.3685  132.1598  154.8831 C.3     1  UNL1        0.0594
     16 C         142.7966  133.5465  154.8938 C.ar    1  UNL1        0.0884
     17 N         142.3873  134.3408  153.6890 N.ar    1  UNL1       -0.2415
     18 C         141.8714  135.6676  154.1619 C.ar    1  UNL1        0.1012
     19 C         141.9619  135.6933  155.6590 C.ar    1  UNL1        0.0271
     20 S         142.5337  134.3823  156.1113 S.2     1  UNL1       -0.0751
     21 C         137.6998  144.0012  163.1039 C.3     1  UNL1        0.1747
     22 N         138.3285  144.1597  164.4567 N.pl3   1  UNL1       -0.3093
     23 H         137.8865  144.7094  165.1435 H       1  UNL1        0.1487
     24 C         139.6305  143.4808  164.7629 C.ar    1  UNL1        0.1500
     25 N         140.9960  144.0818  164.6080 N.ar    1  UNL1       -0.1544
     26 N         142.0050  143.0541  165.0271 N.ar    1  UNL1       -0.2476
     27 C         143.4945  143.2314  165.0316 C.3     1  UNL1        0.1537
     28 C         141.2631  141.8178  165.4410 C.ar    1  UNL1        0.0807
     29 C         141.7342  140.4861  165.9454 C.ar    1  UNL1        0.0188
     30 C         140.7377  139.4181  166.2865 C.ar    1  UNL1        0.0054
     31 C         139.2701  139.6819  166.1232 C.ar    1  UNL1        0.0716
     32 C         138.7990  141.0136  165.6188 C.ar    1  UNL1        0.0082
     33 C         139.7955  142.0816  165.2776 C.ar    1  UNL1        0.0503
     34 C         138.2737  138.6138  166.4643 C.3     1  UNL1        0.4186
     35 F         137.2772  137.5457  166.8054 F       1  UNL1       -0.1659
     36 F         138.1407  139.1794  167.8472 F       1  UNL1       -0.1659
     37 F         138.4066  138.0481  165.0815 F       1  UNL1       -0.1659
@<TRIPOS>BOND
     1    15    16    1
     2    16    17   ar
     3    17    18   ar
     4    18    19   ar
     5     9    19    1
     6     9    10    1
     7    10    11    1
     8    11    12    1
     9    12     5    1
    10     5     6    1
    11     6     7    1
    12     7     1    1
    13     1     2   am
    14     2     3    2
    15     2    21    1
    16    21    22    1
    17    22    24    1
    18    24    25   ar
    19    25    26   ar
    20    26    27    1
    21    26    28   ar
    22    28    29   ar
    23    29    30   ar
    24    30    31   ar
    25    31    34    1
    26    34    35    1
    27    34    36    1
    28    34    37    1
    29    31    32   ar
    30    32    33   ar
    31     7     8    1
    32    12    13    1
    33    13    14    1
    34    19    20   ar
    35    20    16   ar
    36    14     9    1
    37     8     5    1
    38    33    24   ar
    39    33    28   ar
    40     1     4    1
    41    22    23    1
@<TRIPOS>MOLECULE
*****
 37 41 0 0 0
SMALL
GASTEIGER

@<TRIPOS>ATOM
      1 N         138.8533  142.2672  156.8424 N.am    1  UNL1       -0.3018
      2 C         138.4998  141.8903  158.2505 C.2     1  UNL1        0.2425
      3 O         138.2553  142.9591  159.2742 O.2     1  UNL1       -0.2733
      4 H         139.0137  141.5657  156.1705 H       1  UNL1        0.1495
      5 N         139.1165  145.7577  155.9142 N.3     1  UNL1       -0.2711
      6 C         138.2038  144.6271  155.5418 C.3     1  UNL1        0.0933
      7 C         138.9624  143.7130  156.4580 C.3     1  UNL1        0.1035
      8 C         139.8750  144.8436  156.8303 C.3     1  UNL1        0.0933
      9 C         139.4437  150.0951  154.7609 C.3     1  UNL1        0.0301
     10 C         138.6878  149.7022  155.9956 C.3     1  UNL1        0.0063
     11 C         138.5788  148.2565  156.3800 C.3     1  UNL1        0.0163
     12 C         139.2256  147.2035  155.5298 C.3     1  UNL1        0.0576
     13 C         139.9815  147.5963  154.2951 C.3     1  UNL1        0.0163
     14 C         140.0905  149.0421  153.9107 C.3     1  UNL1        0.0063
     15 C         138.3374  155.2183  154.1214 C.3     1  UNL1        0.0594
     16 C         139.0442  153.8958  154.0826 C.ar    1  UNL1        0.0884
     17 N         140.3964  153.6359  153.4878 N.ar    1  UNL1       -0.2415
     18 C         140.7107  152.1805  153.6694 C.ar    1  UNL1        0.1012
     19 C         139.5527  151.5409  154.3766 C.ar    1  UNL1        0.0271
     20 S         138.5227  152.6011  154.6319 S.2     1  UNL1       -0.0751
     21 C         138.3907  140.4445  158.6350 C.3     1  UNL1        0.1747
     22 N         138.3989  140.0506  160.0824 N.pl3   1  UNL1       -0.3093
     23 H         137.6484  140.3056  160.6662 H       1  UNL1        0.1487
     24 C         139.5507  139.2681  160.6402 C.ar    1  UNL1        0.1500
     25 N         140.7845  138.8601  159.8910 N.ar    1  UNL1       -0.1544
     26 N         141.6672  138.0961  160.8329 N.ar    1  UNL1       -0.2476
     27 C         143.0036  137.5008  160.5018 C.3     1  UNL1        0.1537
     28 C         140.9790  138.0320  162.1642 C.ar    1  UNL1        0.0807
     29 C         141.3744  137.4076  163.4695 C.ar    1  UNL1        0.0188
     30 C         140.4617  137.5076  164.6556 C.ar    1  UNL1        0.0054
     31 C         139.1536  138.2320  164.5364 C.ar    1  UNL1        0.0716
     32 C         138.7582  138.8563  163.2312 C.ar    1  UNL1        0.0082
     33 C         139.6709  138.7564  162.0450 C.ar    1  UNL1        0.0503
     34 C         138.2409  138.3319  165.7227 C.3     1  UNL1        0.4186
     35 F         137.3282  138.4318  166.9088 F       1  UNL1       -0.1659
     36 F         138.2247  139.8254  165.5844 F       1  UNL1       -0.1659
     37 F         138.2570  136.8384  165.8609 F       1  UNL1       -0.1659
@<TRIPOS>BOND
     1    15    16    1
     2    16    17   ar
     3    17    18   ar
     4    18    19   ar
     5     9    19    1
     6     9    10    1
     7    10    11    1
     8    11    12    1
     9    12     5    1
    10     5     6    1
    11     6     7    1
    12     7     1    1
    13     1     2   am
    14     2     3    2
    15     2    21    1
    16    21    22    1
    17    22    24    1
    18    24    25   ar
    19    25    26   ar
    20    26    27    1
    21    26    28   ar
    22    28    29   ar
    23    29    30   ar
    24    30    31   ar
    25    31    34    1
    26    34    35    1
    27    34    36    1
    28    34    37    1
    29    31    32   ar
    30    32    33   ar
    31     7     8    1
    32    12    13    1
    33    13    14    1
    34    19    20   ar
    35    20    16   ar
    36    14     9    1
    37     8     5    1
    38    33    24   ar
    39    33    28   ar
    40     1     4    1
    41    22    23    1
@<TRIPOS>MOLECULE
*****
 37 41 0 0 0
SMALL
GASTEIGER

@<TRIPOS>ATOM
      1 N         140.0487  142.4422  158.1778 N.am    1  UNL1       -0.3018
      2 C         139.2110  142.1226  159.3803 C.2     1  UNL1        0.2425
      3 O         138.2398  143.1363  159.9087 O.2     1  UNL1       -0.2733
      4 H         140.6861  141.7769  157.8310 H       1  UNL1        0.1495
      5 N         139.7262  145.6611  156.5502 N.3     1  UNL1       -0.2711
      6 C         139.1130  144.3065  156.3526 C.3     1  UNL1        0.0933
      7 C         139.9151  143.7755  157.5037 C.3     1  UNL1        0.1035
      8 C         140.5282  145.1301  157.7012 C.3     1  UNL1        0.0933
      9 C         139.3255  149.6611  154.5279 C.3     1  UNL1        0.0301
     10 C         138.6397  149.4111  155.8384 C.3     1  UNL1        0.0063
     11 C         138.7733  148.0778  156.5124 C.3     1  UNL1        0.0163
     12 C         139.5926  146.9944  155.8761 C.3     1  UNL1        0.0576
     13 C         140.2783  147.2443  154.5657 C.3     1  UNL1        0.0163
     14 C         140.1448  148.5776  153.8915 C.3     1  UNL1        0.0063
     15 C         138.3985  154.7900  153.6824 C.3     1  UNL1        0.0594
     16 C         138.7657  153.3519  153.4652 C.ar    1  UNL1        0.0884
     17 N         139.2066  152.7407  152.1683 N.ar    1  UNL1       -0.2415
     18 C         139.4699  151.2836  152.4085 C.ar    1  UNL1        0.1012
     19 C         139.1919  150.9944  153.8539 C.ar    1  UNL1        0.0271
     20 S         138.7566  152.2727  154.5070 S.2     1  UNL1       -0.0751
     21 C         139.3446  140.7893  160.0544 C.3     1  UNL1        0.1747
     22 N         138.7137  140.5606  161.3961 N.pl3   1  UNL1       -0.3093
     23 H         137.8992  140.0126  161.4700 H       1  UNL1        0.1487
     24 C         139.3239  141.1670  162.6249 C.ar    1  UNL1        0.1500
     25 N         140.1446  142.4215  162.6746 N.ar    1  UNL1       -0.1544
     26 N         140.5485  142.6550  164.1002 N.ar    1  UNL1       -0.2476
     27 C         141.3778  143.7981  164.6057 C.3     1  UNL1        0.1537
     28 C         139.9774  141.5448  164.9316 C.ar    1  UNL1        0.0807
     29 C         140.0487  141.2524  166.4010 C.ar    1  UNL1        0.0188
     30 C         139.3632  140.0404  166.9587 C.ar    1  UNL1        0.0054
     31 C         138.6064  139.1207  166.0469 C.ar    1  UNL1        0.0716
     32 C         138.5350  139.4131  164.5775 C.ar    1  UNL1        0.0082
     33 C         139.2205  140.6251  164.0198 C.ar    1  UNL1        0.0503
     34 C         137.9209  137.9086  166.6047 C.3     1  UNL1        0.4186
     35 F         137.2354  136.6967  167.1624 F       1  UNL1       -0.1659
     36 F         138.4475  137.0867  165.4659 F       1  UNL1       -0.1659
     37 F         137.3942  138.7306  167.7435 F       1  UNL1       -0.1659
@<TRIPOS>BOND
     1    15    16    1
     2    16    17   ar
     3    17    18   ar
     4    18    19   ar
     5     9    19    1
     6     9    10    1
     7    10    11    1
     8    11    12    1
     9    12     5    1
    10     5     6    1
    11     6     7    1
    12     7     1    1
    13     1     2   am
    14     2     3    2
    15     2    21    1
    16    21    22    1
    17    22    24    1
    18    24    25   ar
    19    25    26   ar
    20    26    27    1
    21    26    28   ar
    22    28    29   ar
    23    29    30   ar
    24    30    31   ar
    25    31    34    1
    26    34    35    1
    27    34    36    1
    28    34    37    1
    29    31    32   ar
    30    32    33   ar
    31     7     8    1
    32    12    13    1
    33    13    14    1
    34    19    20   ar
    35    20    16   ar
    36    14     9    1
    37     8     5    1
    38    33    24   ar
    39    33    28   ar
    40     1     4    1
    41    22    23    1
@<TRIPOS>MOLECULE
*****
 37 41 0 0 0
SMALL
GASTEIGER

@<TRIPOS>ATOM
      1 N         139.3226  143.2730  161.3375 N.am    1  UNL1       -0.3018
      2 C         138.1516  143.1553  162.2674 C.2     1  UNL1        0.2425
      3 O         137.4073  141.8575  162.3757 O.2     1  UNL1       -0.2733
      4 H         139.8111  144.1248  161.2664 H       1  UNL1        0.1495
      5 N         140.3528  140.4237  159.3539 N.3     1  UNL1       -0.2711
      6 C         140.0447  140.6506  160.8043 C.3     1  UNL1        0.0933
      7 C         139.7493  142.0928  160.5158 C.3     1  UNL1        0.1035
      8 C         140.0574  141.8658  159.0655 C.3     1  UNL1        0.0933
      9 C         141.6330  136.8831  156.8890 C.3     1  UNL1        0.0301
     10 C         140.2392  137.4224  156.7600 C.3     1  UNL1        0.0063
     11 C         139.8125  138.6025  157.5815 C.3     1  UNL1        0.0163
     12 C         140.7795  139.2435  158.5323 C.3     1  UNL1        0.0576
     13 C         142.1733  138.7043  158.6614 C.3     1  UNL1        0.0163
     14 C         142.6000  137.5241  157.8397 C.3     1  UNL1        0.0063
     15 C         141.8504  133.2280  153.0847 C.3     1  UNL1        0.0594
     16 C         142.1595  134.0229  154.3186 C.ar    1  UNL1        0.0884
     17 N         143.2724  133.7509  155.2869 N.ar    1  UNL1       -0.2415
     18 C         143.2106  134.7892  156.3676 C.ar    1  UNL1        0.1012
     19 C         142.0596  135.7030  156.0674 C.ar    1  UNL1        0.0271
     20 S         141.4099  135.2293  154.8009 S.2     1  UNL1       -0.0751
     21 C         137.7248  144.3354  163.0890 C.3     1  UNL1        0.1747
     22 N         138.5398  144.7573  164.2757 N.pl3   1  UNL1       -0.3093
     23 H         138.1166  145.2566  165.0111 H       1  UNL1        0.1487
     24 C         139.9996  144.4184  164.3417 C.ar    1  UNL1        0.1500
     25 N         141.0809  145.0066  163.4845 N.ar    1  UNL1       -0.1544
     26 N         142.3838  144.3836  163.8895 N.ar    1  UNL1       -0.2476
     27 C         143.7270  144.6814  163.2920 C.3     1  UNL1        0.1537
     28 C         142.1078  143.4103  164.9970 C.ar    1  UNL1        0.0807
     29 C         143.0079  142.5072  165.7871 C.ar    1  UNL1        0.0188
     30 C         142.4344  141.6257  166.8567 C.ar    1  UNL1        0.0054
     31 C         140.9608  141.6473  167.1361 C.ar    1  UNL1        0.0716
     32 C         140.0607  142.5503  166.3460 C.ar    1  UNL1        0.0082
     33 C         140.6342  143.4318  165.2765 C.ar    1  UNL1        0.0503
     34 C         140.3873  140.7657  168.2058 C.3     1  UNL1        0.4186
     35 F         139.8138  139.8842  169.2753 F       1  UNL1       -0.1659
     36 F         139.2617  140.3865  167.2897 F       1  UNL1       -0.1659
     37 F         141.5129  141.1450  169.1218 F       1  UNL1       -0.1659
@<TRIPOS>BOND
     1    15    16    1
     2    16    17   ar
     3    17    18   ar
     4    18    19   ar
     5     9    19    1
     6     9    10    1
     7    10    11    1
     8    11    12    1
     9    12     5    1
    10     5     6    1
    11     6     7    1
    12     7     1    1
    13     1     2   am
    14     2     3    2
    15     2    21    1
    16    21    22    1
    17    22    24    1
    18    24    25   ar
    19    25    26   ar
    20    26    27    1
    21    26    28   ar
    22    28    29   ar
    23    29    30   ar
    24    30    31   ar
    25    31    34    1
    26    34    35    1
    27    34    36    1
    28    34    37    1
    29    31    32   ar
    30    32    33   ar
    31     7     8    1
    32    12    13    1
    33    13    14    1
    34    19    20   ar
    35    20    16   ar
    36    14     9    1
    37     8     5    1
    38    33    24   ar
    39    33    28   ar
    40     1     4    1
    41    22    23    1
@<TRIPOS>MOLECULE
*****
 37 41 0 0 0
SMALL
GASTEIGER

@<TRIPOS>ATOM
      1 N         143.0347  137.6808  158.7382 N.am    1  UNL1       -0.3018
      2 C         142.9405  138.6716  157.6159 C.2     1  UNL1        0.2425
      3 O         142.7768  140.1320  157.9164 O.2     1  UNL1       -0.2733
      4 H         143.1422  136.7223  158.5409 H       1  UNL1        0.1495
      5 N         142.8668  138.8150  162.1732 N.3     1  UNL1       -0.2711
      6 C         141.8584  138.4050  161.1411 C.3     1  UNL1        0.0933
      7 C         142.9652  138.1506  160.1610 C.3     1  UNL1        0.1035
      8 C         143.9734  138.5605  161.1931 C.3     1  UNL1        0.0933
      9 C         142.6582  140.2243  166.4418 C.3     1  UNL1        0.0301
     10 C         142.6190  141.2198  165.3204 C.3     1  UNL1        0.0063
     11 C         142.6885  140.7501  163.8976 C.3     1  UNL1        0.0163
     12 C         142.7972  139.2847  163.5961 C.3     1  UNL1        0.0576
     13 C         142.8364  138.2892  164.7174 C.3     1  UNL1        0.0163
     14 C         142.7669  138.7589  166.1402 C.3     1  UNL1        0.0063
     15 C         142.9387  143.2756  170.7419 C.3     1  UNL1        0.0594
     16 C         142.7176  142.0967  169.8411 C.ar    1  UNL1        0.0884
     17 N         142.2458  140.7380  170.2669 N.ar    1  UNL1       -0.2415
     18 C         142.1660  139.8712  169.0453 C.ar    1  UNL1        0.1012
     19 C         142.5886  140.6941  167.8645 C.ar    1  UNL1        0.0271
     20 S         142.9295  142.0696  168.3564 S.2     1  UNL1       -0.0751
     21 C         143.0100  138.2018  156.1930 C.3     1  UNL1        0.1747
     22 N         143.8412  137.0045  155.8382 N.pl3   1  UNL1       -0.3093
     23 H         144.7741  136.9438  156.1471 H       1  UNL1        0.1487
     24 C         143.2510  135.8997  155.0130 C.ar    1  UNL1        0.1500
     25 N         142.4300  136.0702  153.7693 N.ar    1  UNL1       -0.1544
     26 N         142.0498  134.7063  153.2742 N.ar    1  UNL1       -0.2476
     27 C         141.2278  134.4081  152.0554 C.3     1  UNL1        0.1537
     28 C         142.6360  133.6928  154.2119 C.ar    1  UNL1        0.0807
     29 C         142.5896  132.1936  154.2261 C.ar    1  UNL1        0.0188
     30 C         143.2856  131.4320  155.3148 C.ar    1  UNL1        0.0054
     31 C         144.0280  132.1695  156.3894 C.ar    1  UNL1        0.0716
     32 C         144.0744  133.6687  156.3753 C.ar    1  UNL1        0.0082
     33 C         143.3784  134.4303  155.2865 C.ar    1  UNL1        0.0503
     34 C         144.7241  131.4078  157.4782 C.3     1  UNL1        0.4186
     35 F         145.4201  130.6461  158.5670 F       1  UNL1       -0.1659
     36 F         145.0551  132.6975  158.1689 F       1  UNL1       -0.1659
     37 F         144.3931  130.1182  156.7876 F       1  UNL1       -0.1659
@<TRIPOS>BOND
     1    15    16    1
     2    16    17   ar
     3    17    18   ar
     4    18    19   ar
     5     9    19    1
     6     9    10    1
     7    10    11    1
     8    11    12    1
     9    12     5    1
    10     5     6    1
    11     6     7    1
    12     7     1    1
    13     1     2   am
    14     2     3    2
    15     2    21    1
    16    21    22    1
    17    22    24    1
    18    24    25   ar
    19    25    26   ar
    20    26    27    1
    21    26    28   ar
    22    28    29   ar
    23    29    30   ar
    24    30    31   ar
    25    31    34    1
    26    34    35    1
    27    34    36    1
    28    34    37    1
    29    31    32   ar
    30    32    33   ar
    31     7     8    1
    32    12    13    1
    33    13    14    1
    34    19    20   ar
    35    20    16   ar
    36    14     9    1
    37     8     5    1
    38    33    24   ar
    39    33    28   ar
    40     1     4    1
    41    22    23    1
@<TRIPOS>MOLECULE
*****
 37 41 0 0 0
SMALL
GASTEIGER

@<TRIPOS>ATOM
      1 N         143.6379  141.2531  164.0547 N.am    1  UNL1       -0.3018
      2 C         144.2264  139.8857  163.8707 C.2     1  UNL1        0.2425
      3 O         144.3290  139.2919  162.4971 O.2     1  UNL1       -0.2733
      4 H         143.5706  141.6428  164.9563 H       1  UNL1        0.1495
      5 N         142.4646  143.1206  161.1825 N.3     1  UNL1       -0.2711
      6 C         141.9845  141.9121  161.9301 C.3     1  UNL1        0.0933
      7 C         143.1520  142.0267  162.8650 C.3     1  UNL1        0.1035
      8 C         143.6320  143.2352  162.1174 C.3     1  UNL1        0.0933
      9 C         141.0067  145.4414  157.6134 C.3     1  UNL1        0.0301
     10 C         140.3937  145.6763  158.9622 C.3     1  UNL1        0.0063
     11 C         140.8797  144.9027  160.1518 C.3     1  UNL1        0.0163
     12 C         141.9787  143.8942  159.9928 C.3     1  UNL1        0.0576
     13 C         142.5916  143.6594  158.6440 C.3     1  UNL1        0.0163
     14 C         142.1057  144.4330  157.4543 C.3     1  UNL1        0.0063
     15 C         140.6872  147.5484  152.7823 C.3     1  UNL1        0.0594
     16 C         140.3738  147.1835  154.2031 C.ar    1  UNL1        0.0884
     17 N         139.1719  147.6276  154.9829 N.ar    1  UNL1       -0.2415
     18 C         139.2626  147.0291  156.3553 C.ar    1  UNL1        0.1012
     19 C         140.5207  146.2151  156.4238 C.ar    1  UNL1        0.0271
     20 S         141.2075  146.3105  155.0936 S.2     1  UNL1       -0.0751
     21 C         144.7124  139.1121  165.0604 C.3     1  UNL1        0.1747
     22 N         143.7476  138.2983  165.8710 N.pl3   1  UNL1       -0.3093
     23 H         143.9020  137.3344  165.9982 H       1  UNL1        0.1487
     24 C         142.5474  138.9533  166.4879 C.ar    1  UNL1        0.1500
     25 N         142.5011  139.6255  167.8281 N.ar    1  UNL1       -0.1544
     26 N         141.1079  140.1387  168.0413 N.ar    1  UNL1       -0.2476
     27 C         140.6158  140.8773  169.2506 C.3     1  UNL1        0.1537
     28 C         140.2931  139.7837  166.8330 C.ar    1  UNL1        0.0807
     29 C         138.8560  140.0330  166.4829 C.ar    1  UNL1        0.0188
     30 C         138.3086  139.5495  165.1727 C.ar    1  UNL1        0.0054
     31 C         139.1982  138.8169  164.2126 C.ar    1  UNL1        0.0716
     32 C         140.6353  138.5677  164.5627 C.ar    1  UNL1        0.0082
     33 C         141.1827  139.0511  165.8729 C.ar    1  UNL1        0.0503
     34 C         138.6507  138.3335  162.9024 C.3     1  UNL1        0.4186
     35 F         138.1033  137.8500  161.5923 F       1  UNL1       -0.1659
     36 F         137.6822  139.4787  162.8845 F       1  UNL1       -0.1659
     37 F         139.6193  137.1882  162.9203 F       1  UNL1       -0.1659
@<TRIPOS>BOND
     1    15    16    1
     2    16    17   ar
     3    17    18   ar
     4    18    19   ar
     5     9    19    1
     6     9    10    1
     7    10    11    1
     8    11    12    1
     9    12     5    1
    10     5     6    1
    11     6     7    1
    12     7     1    1
    13     1     2   am
    14     2     3    2
    15     2    21    1
    16    21    22    1
    17    22    24    1
    18    24    25   ar
    19    25    26   ar
    20    26    27    1
    21    26    28   ar
    22    28    29   ar
    23    29    30   ar
    24    30    31   ar
    25    31    34    1
    26    34    35    1
    27    34    36    1
    28    34    37    1
    29    31    32   ar
    30    32    33   ar
    31     7     8    1
    32    12    13    1
    33    13    14    1
    34    19    20   ar
    35    20    16   ar
    36    14     9    1
    37     8     5    1
    38    33    24   ar
    39    33    28   ar
    40     1     4    1
    41    22    23    1
@<TRIPOS>MOLECULE
*****
 37 41 0 0 0
SMALL
GASTEIGER

@<TRIPOS>ATOM
      1 N         141.5889  142.8129  157.5096 N.am    1  UNL1       -0.3018
      2 C         140.2648  143.4667  157.7722 C.2     1  UNL1        0.2425
      3 O         139.0058  142.6520  157.7361 O.2     1  UNL1       -0.2733
      4 H         142.4153  143.3476  157.5332 H       1  UNL1        0.1495
      5 N         141.7462  139.2676  156.7883 N.3     1  UNL1       -0.2711
      6 C         141.0339  140.1131  157.8020 C.3     1  UNL1        0.0933
      7 C         141.6541  141.3444  157.2108 C.3     1  UNL1        0.1035
      8 C         142.3664  140.4988  156.1971 C.3     1  UNL1        0.0933
      9 C         141.9418  134.8621  155.8919 C.3     1  UNL1        0.0301
     10 C         140.8339  135.6956  155.3192 C.3     1  UNL1        0.0063
     11 C         140.7688  137.1640  155.6180 C.3     1  UNL1        0.0163
     12 C         141.8114  137.7991  156.4895 C.3     1  UNL1        0.0576
     13 C         142.9193  136.9656  157.0622 C.3     1  UNL1        0.0163
     14 C         142.9845  135.4971  156.7634 C.3     1  UNL1        0.0063
     15 C         143.0020  129.7031  156.2679 C.3     1  UNL1        0.0594
     16 C         142.4942  131.0223  155.7659 C.ar    1  UNL1        0.0884
     17 N         141.7200  131.2453  154.5006 N.ar    1  UNL1       -0.2415
     18 C         141.4188  132.7109  154.3938 C.ar    1  UNL1        0.1012
     19 C         142.0069  133.3937  155.5930 C.ar    1  UNL1        0.0271
     20 S         142.6715  132.3499  156.4410 S.2     1  UNL1       -0.0751
     21 C         140.1996  144.9352  158.0710 C.3     1  UNL1        0.1747
     22 N         140.1247  145.4087  159.4924 N.pl3   1  UNL1       -0.3093
     23 H         139.4712  146.0996  159.7473 H       1  UNL1        0.1487
     24 C         141.0454  144.8297  160.5254 C.ar    1  UNL1        0.1500
     25 N         142.4667  144.4061  160.3013 N.ar    1  UNL1       -0.1544
     26 N         143.0061  143.8872  161.6013 N.ar    1  UNL1       -0.2476
     27 C         144.3905  143.3582  161.8331 C.3     1  UNL1        0.1537
     28 C         141.9181  143.9901  162.6287 C.ar    1  UNL1        0.0807
     29 C         141.8743  143.6287  164.0838 C.ar    1  UNL1        0.0188
     30 C         140.6187  143.8498  164.8740 C.ar    1  UNL1        0.0054
     31 C         139.4068  144.4323  164.2091 C.ar    1  UNL1        0.0716
     32 C         139.4506  144.7937  162.7540 C.ar    1  UNL1        0.0082
     33 C         140.7063  144.5726  161.9638 C.ar    1  UNL1        0.0503
     34 C         138.1511  144.6534  164.9993 C.3     1  UNL1        0.4186
     35 F         136.8955  144.8744  165.7895 F       1  UNL1       -0.1659
     36 F         138.9714  145.0278  166.1981 F       1  UNL1       -0.1659
     37 F         137.3309  144.2789  163.8006 F       1  UNL1       -0.1659
@<TRIPOS>BOND
     1    15    16    1
     2    16    17   ar
     3    17    18   ar
     4    18    19   ar
     5     9    19    1
     6     9    10    1
     7    10    11    1
     8    11    12    1
     9    12     5    1
    10     5     6    1
    11     6     7    1
    12     7     1    1
    13     1     2   am
    14     2     3    2
    15     2    21    1
    16    21    22    1
    17    22    24    1
    18    24    25   ar
    19    25    26   ar
    20    26    27    1
    21    26    28   ar
    22    28    29   ar
    23    29    30   ar
    24    30    31   ar
    25    31    34    1
    26    34    35    1
    27    34    36    1
    28    34    37    1
    29    31    32   ar
    30    32    33   ar
    31     7     8    1
    32    12    13    1
    33    13    14    1
    34    19    20   ar
    35    20    16   ar
    36    14     9    1
    37     8     5    1
    38    33    24   ar
    39    33    28   ar
    40     1     4    1
    41    22    23    1
@<TRIPOS>MOLECULE
*****
 37 41 0 0 0
SMALL
GASTEIGER

@<TRIPOS>ATOM
      1 N         140.8560  140.6895  158.3134 N.am    1  UNL1       -0.3018
      2 C         139.7272  141.4801  157.7213 C.2     1  UNL1        0.2425
      3 O         138.9762  140.9449  156.5383 O.2     1  UNL1       -0.2733
      4 H         141.3489  141.0408  159.0899 H       1  UNL1        0.1495
      5 N         141.7683  137.4885  156.8865 N.3     1  UNL1       -0.2711
      6 C         142.3091  138.8845  156.7926 C.3     1  UNL1        0.0933
      7 C         141.2339  139.3636  157.7224 C.3     1  UNL1        0.1035
      8 C         140.6931  137.9677  157.8162 C.3     1  UNL1        0.0933
      9 C         142.9017  133.5109  155.1135 C.3     1  UNL1        0.0301
     10 C         143.7406  134.1137  156.2013 C.3     1  UNL1        0.0063
     11 C         143.3628  135.4395  156.7922 C.3     1  UNL1        0.0163
     12 C         142.1461  136.1627  156.2955 C.3     1  UNL1        0.0576
     13 C         141.3073  135.5599  155.2078 C.3     1  UNL1        0.0163
     14 C         141.6851  134.2341  154.6168 C.3     1  UNL1        0.0063
     15 C         144.9434  128.6782  154.5156 C.3     1  UNL1        0.0594
     16 C         144.2181  129.9637  154.2478 C.ar    1  UNL1        0.0884
     17 N         143.5045  130.3256  152.9790 N.ar    1  UNL1       -0.2415
     18 C         142.9245  131.6984  153.1489 C.ar    1  UNL1        0.1012
     19 C         143.2797  132.1850  154.5226 C.ar    1  UNL1        0.0271
     20 S         144.0792  131.1128  155.2018 S.2     1  UNL1       -0.0751
     21 C         139.3494  142.8060  158.3123 C.3     1  UNL1        0.1747
     22 N         138.2783  142.8824  159.3598 N.pl3   1  UNL1       -0.3093
     23 H         137.6488  143.6393  159.3659 H       1  UNL1        0.1487
     24 C         138.1665  141.8055  160.3980 C.ar    1  UNL1        0.1500
     25 N         138.0009  140.3386  160.1324 N.ar    1  UNL1       -0.1544
     26 N         137.9326  139.6330  161.4543 N.ar    1  UNL1       -0.2476
     27 C         137.7696  138.1559  161.6580 C.3     1  UNL1        0.1537
     28 C         138.0560  140.6639  162.5369 C.ar    1  UNL1        0.0807
     29 C         138.0555  140.5535  164.0328 C.ar    1  UNL1        0.0188
     30 C         138.1994  141.7857  164.8759 C.ar    1  UNL1        0.0054
     31 C         138.3439  143.1285  164.2230 C.ar    1  UNL1        0.0716
     32 C         138.3445  143.2389  162.7271 C.ar    1  UNL1        0.0082
     33 C         138.2006  142.0066  161.8841 C.ar    1  UNL1        0.0503
     34 C         138.4879  144.3608  165.0661 C.3     1  UNL1        0.4186
     35 F         138.6318  145.5930  165.9092 F       1  UNL1       -0.1659
     36 F         139.9809  144.2393  164.9888 F       1  UNL1       -0.1659
     37 F         136.9949  144.4822  165.1435 F       1  UNL1       -0.1659
@<TRIPOS>BOND
     1    15    16    1
     2    16    17   ar
     3    17    18   ar
     4    18    19   ar
     5     9    19    1
     6     9    10    1
     7    10    11    1
     8    11    12    1
     9    12     5    1
    10     5     6    1
    11     6     7    1
    12     7     1    1
    13     1     2   am
    14     2     3    2
    15     2    21    1
    16    21    22    1
    17    22    24    1
    18    24    25   ar
    19    25    26   ar
    20    26    27    1
    21    26    28   ar
    22    28    29   ar
    23    29    30   ar
    24    30    31   ar
    25    31    34    1
    26    34    35    1
    27    34    36    1
    28    34    37    1
    29    31    32   ar
    30    32    33   ar
    31     7     8    1
    32    12    13    1
    33    13    14    1
    34    19    20   ar
    35    20    16   ar
    36    14     9    1
    37     8     5    1
    38    33    24   ar
    39    33    28   ar
    40     1     4    1
    41    22    23    1
