@<TRIPOS>MOLECULE
*****
 42 46 0 0 0
SMALL
GASTEIGER

@<TRIPOS>ATOM
      1 C         139.6243  143.1568  157.2032 C.ar    1  UNL1        0.1383
      2 C         140.7486  143.3578  156.2309 C.ar    1  UNL1        0.0369
      3 C         141.8923  144.2621  156.5834 C.ar    1  UNL1        0.0028
      4 C         141.9116  144.9654  157.9082 C.ar    1  UNL1       -0.0041
      5 C         140.7872  144.7643  158.8805 C.ar    1  UNL1       -0.0186
      6 C         139.6436  143.8600  158.5280 C.ar    1  UNL1        0.0326
      7 O         138.4805  142.2525  156.8507 O.3     1  UNL1       -0.4751
      8 C         138.4196  140.8648  157.4170 C.3     1  UNL1        0.2118
      9 C         139.6718  140.1981  157.9044 C.3     1  UNL1        0.0960
     10 C         139.9433  140.0265  161.7725 C.ar    1  UNL1        0.2289
     11 N         139.1932  139.7700  160.4992 N.ar    1  UNL1       -0.2129
     12 C         140.0360  140.2578  159.3583 C.ar    1  UNL1        0.0960
     13 C         141.3071  140.8159  159.9266 C.ar    1  UNL1        0.1387
     14 C         142.4372  141.4121  159.1408 C.3     1  UNL1        0.0738
     15 O         141.2498  140.6729  161.4186 O.2     1  UNL1       -0.4392
     16 C         138.5234  139.0317  165.9252 C.ar    1  UNL1        0.1387
     17 C         139.5546  138.1701  165.2586 C.ar    1  UNL1        0.0371
     18 C         140.0278  138.5017  163.8744 C.ar    1  UNL1        0.0078
     19 C         139.4700  139.6949  163.1568 C.ar    1  UNL1        0.0537
     20 C         138.4389  140.5565  163.8233 C.ar    1  UNL1        0.0078
     21 C         137.9656  140.2249  165.2076 C.ar    1  UNL1        0.0371
     22 C         137.0362  137.6141  167.5153 C.3     1  UNL1        0.2525
     23 O         138.0502  138.7001  167.3094 O.3     1  UNL1       -0.4714
     24 C         140.8065  145.4676  160.2053 C.3     1  UNL1        0.0376
     25 C         140.9103  144.6742  161.4740 C.3     1  UNL1        0.1052
     26 C         142.0334  144.2654  162.3805 C.2     1  UNL1        0.2315
     27 O         143.5178  144.4806  162.3936 O.2     1  UNL1       -0.2745
     28 N         141.0571  143.5522  163.2684 N.am    1  UNL1       -0.2546
     29 C         139.9341  143.9610  162.3619 C.3     1  UNL1        0.1249
     30 C         141.1609  142.7588  164.5372 C.ar    1  UNL1        0.0541
     31 C         142.0840  141.5787  164.6104 C.ar    1  UNL1        0.0146
     32 C         142.1878  140.7854  165.8792 C.ar    1  UNL1       -0.0030
     33 C         141.3686  141.1721  167.0747 C.ar    1  UNL1       -0.0227
     34 C         140.4456  142.3522  167.0014 C.ar    1  UNL1       -0.0030
     35 C         140.3418  143.1455  165.7327 C.ar    1  UNL1        0.0146
     36 C         141.4724  140.3788  168.3434 C.3     1  UNL1        0.0189
     37 C         140.3111  141.1382  168.9134 C.3     1  UNL1        0.0044
     38 C         142.6337  139.6194  167.7736 C.3     1  UNL1        0.0044
     39 C         141.5762  139.5854  169.6123 C.3     1  UNL1        0.0044
     40 C         138.4496  143.7458  162.3488 C.2     1  UNL1        0.0692
     41 O         137.8116  142.9879  161.2225 O.co2   1  UNL1       -0.5475
     42 O         137.6032  144.2885  163.4619 O.co2   1  UNL1       -0.5475
@<TRIPOS>UNITY_ATOM_ATTR
41 1
charge -1
@<TRIPOS>BOND
     1    22    23    1
     2    23    16    1
     3    16    17   ar
     4    17    18   ar
     5    18    19   ar
     6    19    10    1
     7    10    11   ar
     8    11    12   ar
     9    12     9    1
    10     9     8    1
    11     8     7    1
    12     7     1    1
    13     1     2   ar
    14     2     3   ar
    15     3     4   ar
    16     4     5   ar
    17     5    24    1
    18    25    24    1
    19    25    26    1
    20    26    27    2
    21    26    28   am
    22    28    30    1
    23    30    31   ar
    24    31    32   ar
    25    32    33   ar
    26    33    36    1
    27    36    37    1
    28    36    38    1
    29    36    39    1
    30    33    34   ar
    31    34    35   ar
    32    28    29    1
    33    29    40    1
    34    40    41   ar
    35    40    42   ar
    36     5     6   ar
    37    12    13   ar
    38    13    14    1
    39    13    15   ar
    40    19    20   ar
    41    20    21   ar
    42    21    16   ar
    43    15    10   ar
    44     6     1   ar
    45    29    25    1
    46    35    30   ar
@<TRIPOS>MOLECULE
*****
 42 46 0 0 0
SMALL
GASTEIGER

@<TRIPOS>ATOM
      1 C         141.5421  142.6552  157.7449 C.ar    1  UNL1        0.1383
      2 C         142.1324  143.4739  156.6355 C.ar    1  UNL1        0.0369
      3 C         142.1843  144.9685  156.7522 C.ar    1  UNL1        0.0028
      4 C         141.6458  145.6442  157.9782 C.ar    1  UNL1       -0.0041
      5 C         141.0554  144.8254  159.0877 C.ar    1  UNL1       -0.0186
      6 C         141.0036  143.3308  158.9711 C.ar    1  UNL1        0.0326
      7 O         141.4903  141.1605  157.6283 O.3     1  UNL1       -0.4751
      8 C         142.7623  140.3707  157.5384 C.3     1  UNL1        0.2118
      9 C         143.3241  139.7116  158.7631 C.3     1  UNL1        0.0960
     10 C         141.8298  140.3526  162.2876 C.ar    1  UNL1        0.2289
     11 N         141.9226  139.5364  161.0325 N.ar    1  UNL1       -0.2129
     12 C         142.9208  140.1927  160.1254 C.ar    1  UNL1        0.0960
     13 C         143.4450  141.4146  160.8199 C.ar    1  UNL1        0.1387
     14 C         144.4644  142.3699  160.2740 C.3     1  UNL1        0.0738
     15 O         142.7707  141.5133  162.1562 O.2     1  UNL1       -0.4392
     16 C         139.1919  139.4732  165.8257 C.ar    1  UNL1        0.1387
     17 C         138.6253  140.1645  164.6212 C.ar    1  UNL1        0.0371
     18 C         139.5046  140.4577  163.4418 C.ar    1  UNL1        0.0078
     19 C         140.9505  140.0594  163.4670 C.ar    1  UNL1        0.0537
     20 C         141.5171  139.3681  164.6715 C.ar    1  UNL1        0.0078
     21 C         140.6379  139.0750  165.8509 C.ar    1  UNL1        0.0371
     22 C         137.4597  137.9463  167.0165 C.3     1  UNL1        0.2525
     23 O         138.3126  139.1801  167.0051 O.3     1  UNL1       -0.4714
     24 C         140.5169  145.5010  160.3139 C.3     1  UNL1        0.0376
     25 C         140.7341  144.8870  161.6651 C.3     1  UNL1        0.1052
     26 C         141.9224  144.6771  162.5562 C.2     1  UNL1        0.2315
     27 O         143.3856  144.9944  162.4652 O.2     1  UNL1       -0.2745
     28 N         141.0413  144.0186  163.5761 N.am    1  UNL1       -0.2546
     29 C         139.8531  144.2285  162.6850 C.3     1  UNL1        0.1249
     30 C         141.2585  143.4046  164.9273 C.ar    1  UNL1        0.0541
     31 C         140.1169  143.2965  165.8943 C.ar    1  UNL1        0.0146
     32 C         140.3341  142.6825  167.2455 C.ar    1  UNL1       -0.0030
     33 C         141.6929  142.1765  167.6296 C.ar    1  UNL1       -0.0227
     34 C         142.8345  142.2846  166.6627 C.ar    1  UNL1       -0.0030
     35 C         142.6172  142.8986  165.3115 C.ar    1  UNL1        0.0146
     36 C         141.9101  141.5625  168.9808 C.3     1  UNL1        0.0189
     37 C         140.4956  141.0633  168.9814 C.3     1  UNL1        0.0044
     38 C         143.3246  142.0616  168.9803 C.3     1  UNL1        0.0044
     39 C         142.1273  140.9484  170.3322 C.3     1  UNL1        0.0044
     40 C         138.3898  143.9112  162.7760 C.2     1  UNL1        0.0692
     41 O         137.7167  143.1528  161.6706 O.co2   1  UNL1       -0.5475
     42 O         137.5997  144.3523  163.9723 O.co2   1  UNL1       -0.5475
@<TRIPOS>UNITY_ATOM_ATTR
41 1
charge -1
@<TRIPOS>BOND
     1    22    23    1
     2    23    16    1
     3    16    17   ar
     4    17    18   ar
     5    18    19   ar
     6    19    10    1
     7    10    11   ar
     8    11    12   ar
     9    12     9    1
    10     9     8    1
    11     8     7    1
    12     7     1    1
    13     1     2   ar
    14     2     3   ar
    15     3     4   ar
    16     4     5   ar
    17     5    24    1
    18    25    24    1
    19    25    26    1
    20    26    27    2
    21    26    28   am
    22    28    30    1
    23    30    31   ar
    24    31    32   ar
    25    32    33   ar
    26    33    36    1
    27    36    37    1
    28    36    38    1
    29    36    39    1
    30    33    34   ar
    31    34    35   ar
    32    28    29    1
    33    29    40    1
    34    40    41   ar
    35    40    42   ar
    36     5     6   ar
    37    12    13   ar
    38    13    14    1
    39    13    15   ar
    40    19    20   ar
    41    20    21   ar
    42    21    16   ar
    43    15    10   ar
    44     6     1   ar
    45    29    25    1
    46    35    30   ar
@<TRIPOS>MOLECULE
*****
 42 46 0 0 0
SMALL
GASTEIGER

@<TRIPOS>ATOM
      1 C         140.2598  141.7922  157.6959 C.ar    1  UNL1        0.1383
      2 C         140.9159  140.6032  157.0590 C.ar    1  UNL1        0.0369
      3 C         140.5128  139.2168  157.4659 C.ar    1  UNL1        0.0028
      4 C         139.4538  139.0195  158.5096 C.ar    1  UNL1       -0.0041
      5 C         138.7977  140.2086  159.1465 C.ar    1  UNL1       -0.0186
      6 C         139.2007  141.5950  158.7396 C.ar    1  UNL1        0.0326
      7 O         140.6629  143.1787  157.2890 O.3     1  UNL1       -0.4751
      8 C         139.9869  144.3675  157.9054 C.3     1  UNL1        0.2118
      9 C         140.7032  145.1852  158.9390 C.3     1  UNL1        0.0960
     10 C         141.6733  143.2036  162.1323 C.ar    1  UNL1        0.2289
     11 N         141.7040  143.3861  160.6438 N.ar    1  UNL1       -0.2129
     12 C         140.9288  144.6269  160.3127 C.ar    1  UNL1        0.0960
     13 C         140.4190  145.2112  161.5967 C.ar    1  UNL1        0.1387
     14 C         139.5939  146.4565  161.7323 C.3     1  UNL1        0.0738
     15 O         140.8790  144.3316  162.7212 O.2     1  UNL1       -0.4392
     16 C         143.6215  139.8594  164.4281 C.ar    1  UNL1        0.1387
     17 C         143.8414  141.2832  164.8455 C.ar    1  UNL1        0.0371
     18 C         143.1920  142.3980  164.0803 C.ar    1  UNL1        0.0078
     19 C         142.3227  142.0889  162.8976 C.ar    1  UNL1        0.0537
     20 C         142.1028  140.6650  162.4802 C.ar    1  UNL1        0.0078
     21 C         142.7522  139.5503  163.2455 C.ar    1  UNL1        0.0371
     22 C         143.6475  138.2433  166.4622 C.3     1  UNL1        0.2525
     23 O         144.2709  138.7446  165.1934 O.3     1  UNL1       -0.4714
     24 C         137.7386  140.0114  160.1902 C.3     1  UNL1        0.0376
     25 C         138.1061  140.0298  161.6444 C.3     1  UNL1        0.1052
     26 C         138.5821  139.0053  162.6312 C.2     1  UNL1        0.2315
     27 O         138.8879  137.5380  162.5725 O.2     1  UNL1       -0.2745
     28 N         138.6257  140.0559  163.7010 N.am    1  UNL1       -0.2546
     29 C         138.1497  141.0804  162.7142 C.3     1  UNL1        0.1249
     30 C         138.9932  140.0743  165.1551 C.ar    1  UNL1        0.0541
     31 C         140.1602  140.8921  165.6235 C.ar    1  UNL1        0.0146
     32 C         140.5277  140.9105  167.0777 C.ar    1  UNL1       -0.0030
     33 C         139.7281  140.1112  168.0634 C.ar    1  UNL1       -0.0227
     34 C         138.5612  139.2934  167.5951 C.ar    1  UNL1       -0.0030
     35 C         138.1938  139.2750  166.1409 C.ar    1  UNL1        0.0146
     36 C         140.0956  140.1296  169.5176 C.3     1  UNL1        0.0189
     37 C         141.5215  139.8298  169.1611 C.3     1  UNL1        0.0044
     38 C         138.6698  140.4294  169.8741 C.3     1  UNL1        0.0044
     39 C         140.4631  140.1480  170.9719 C.3     1  UNL1        0.0044
     40 C         137.8439  142.5478  162.7728 C.2     1  UNL1        0.0692
     41 O         137.5647  143.2035  164.0927 O.co2   1  UNL1       -0.5475
     42 O         137.8174  143.3593  161.5116 O.co2   1  UNL1       -0.5475
@<TRIPOS>UNITY_ATOM_ATTR
41 1
charge -1
@<TRIPOS>BOND
     1    22    23    1
     2    23    16    1
     3    16    17   ar
     4    17    18   ar
     5    18    19   ar
     6    19    10    1
     7    10    11   ar
     8    11    12   ar
     9    12     9    1
    10     9     8    1
    11     8     7    1
    12     7     1    1
    13     1     2   ar
    14     2     3   ar
    15     3     4   ar
    16     4     5   ar
    17     5    24    1
    18    25    24    1
    19    25    26    1
    20    26    27    2
    21    26    28   am
    22    28    30    1
    23    30    31   ar
    24    31    32   ar
    25    32    33   ar
    26    33    36    1
    27    36    37    1
    28    36    38    1
    29    36    39    1
    30    33    34   ar
    31    34    35   ar
    32    28    29    1
    33    29    40    1
    34    40    41   ar
    35    40    42   ar
    36     5     6   ar
    37    12    13   ar
    38    13    14    1
    39    13    15   ar
    40    19    20   ar
    41    20    21   ar
    42    21    16   ar
    43    15    10   ar
    44     6     1   ar
    45    29    25    1
    46    35    30   ar
@<TRIPOS>MOLECULE
*****
 42 46 0 0 0
SMALL
GASTEIGER

@<TRIPOS>ATOM
      1 C         142.9020  140.5418  157.1542 C.ar    1  UNL1        0.1383
      2 C         144.3461  140.5959  156.7526 C.ar    1  UNL1        0.0369
      3 C         145.2154  141.7217  157.2290 C.ar    1  UNL1        0.0028
      4 C         144.6405  142.7934  158.1070 C.ar    1  UNL1       -0.0041
      5 C         143.1963  142.7393  158.5086 C.ar    1  UNL1       -0.0186
      6 C         142.3270  141.6135  158.0322 C.ar    1  UNL1        0.0326
      7 O         142.0326  139.4160  156.6777 O.3     1  UNL1       -0.4751
      8 C         141.4462  138.4516  157.6657 C.3     1  UNL1        0.2118
      9 C         142.2834  137.9368  158.7989 C.3     1  UNL1        0.0960
     10 C         141.0363  138.8600  162.3567 C.ar    1  UNL1        0.2289
     11 N         140.8500  138.1581  161.0442 N.ar    1  UNL1       -0.2129
     12 C         142.0515  138.4417  160.1922 C.ar    1  UNL1        0.0960
     13 C         142.9805  139.3189  160.9781 C.ar    1  UNL1        0.1387
     14 C         144.3044  139.8451  160.5087 C.3     1  UNL1        0.0738
     15 O         142.3530  139.5773  162.3158 O.2     1  UNL1       -0.4392
     16 C         138.1518  138.8204  165.8104 C.ar    1  UNL1        0.1387
     17 C         138.2737  140.0423  164.9489 C.ar    1  UNL1        0.0371
     18 C         139.2352  140.0555  163.7977 C.ar    1  UNL1        0.0078
     19 C         140.0748  138.8468  163.5079 C.ar    1  UNL1        0.0537
     20 C         139.9529  137.6249  164.3693 C.ar    1  UNL1        0.0078
     21 C         138.9914  137.6117  165.5205 C.ar    1  UNL1        0.0371
     22 C         136.8987  137.5234  167.6806 C.3     1  UNL1        0.2525
     23 O         137.1903  138.8072  166.9616 O.3     1  UNL1       -0.4714
     24 C         142.6213  143.8109  159.3866 C.3     1  UNL1        0.0376
     25 C         142.2679  143.5036  160.8116 C.3     1  UNL1        0.1052
     26 C         142.9926  143.5743  162.1231 C.2     1  UNL1        0.2315
     27 O         144.3708  143.9817  162.5527 O.2     1  UNL1       -0.2745
     28 N         141.7681  143.0689  162.8269 N.am    1  UNL1       -0.2546
     29 C         141.0435  142.9981  161.5155 C.3     1  UNL1        0.1249
     30 C         141.4148  142.7615  164.2519 C.ar    1  UNL1        0.0541
     31 C         140.2986  143.5041  164.9248 C.ar    1  UNL1        0.0146
     32 C         139.9452  143.1967  166.3498 C.ar    1  UNL1       -0.0030
     33 C         140.7081  142.1468  167.1019 C.ar    1  UNL1       -0.0227
     34 C         141.8242  141.4042  166.4290 C.ar    1  UNL1       -0.0030
     35 C         142.1775  141.7116  165.0041 C.ar    1  UNL1        0.0146
     36 C         140.3547  141.8394  168.5269 C.3     1  UNL1        0.0189
     37 C         140.2361  140.3840  168.1836 C.3     1  UNL1        0.0044
     38 C         140.4733  143.2947  168.8702 C.3     1  UNL1        0.0044
     39 C         140.0013  141.5320  169.9520 C.3     1  UNL1        0.0044
     40 C         139.6653  142.5907  161.0858 C.2     1  UNL1        0.0692
     41 O         139.4840  141.4423  160.1380 O.co2   1  UNL1       -0.5475
     42 O         138.4684  143.3316  161.6039 O.co2   1  UNL1       -0.5475
@<TRIPOS>UNITY_ATOM_ATTR
41 1
charge -1
@<TRIPOS>BOND
     1    22    23    1
     2    23    16    1
     3    16    17   ar
     4    17    18   ar
     5    18    19   ar
     6    19    10    1
     7    10    11   ar
     8    11    12   ar
     9    12     9    1
    10     9     8    1
    11     8     7    1
    12     7     1    1
    13     1     2   ar
    14     2     3   ar
    15     3     4   ar
    16     4     5   ar
    17     5    24    1
    18    25    24    1
    19    25    26    1
    20    26    27    2
    21    26    28   am
    22    28    30    1
    23    30    31   ar
    24    31    32   ar
    25    32    33   ar
    26    33    36    1
    27    36    37    1
    28    36    38    1
    29    36    39    1
    30    33    34   ar
    31    34    35   ar
    32    28    29    1
    33    29    40    1
    34    40    41   ar
    35    40    42   ar
    36     5     6   ar
    37    12    13   ar
    38    13    14    1
    39    13    15   ar
    40    19    20   ar
    41    20    21   ar
    42    21    16   ar
    43    15    10   ar
    44     6     1   ar
    45    29    25    1
    46    35    30   ar
@<TRIPOS>MOLECULE
*****
 42 46 0 0 0
SMALL
GASTEIGER

@<TRIPOS>ATOM
      1 C         140.0025  143.0312  157.5071 C.ar    1  UNL1        0.1383
      2 C         140.9912  143.6403  156.5577 C.ar    1  UNL1        0.0369
      3 C         141.7540  144.8691  156.9556 C.ar    1  UNL1        0.0028
      4 C         141.5282  145.4887  158.3028 C.ar    1  UNL1       -0.0041
      5 C         140.5394  144.8795  159.2522 C.ar    1  UNL1       -0.0186
      6 C         139.7766  143.6508  158.8543 C.ar    1  UNL1        0.0326
      7 O         139.2396  141.8024  157.1092 O.3     1  UNL1       -0.4751
      8 C         139.9745  140.5355  156.7855 C.3     1  UNL1        0.2118
      9 C         139.9843  139.4021  157.7680 C.3     1  UNL1        0.0960
     10 C         140.0101  139.7241  161.6360 C.ar    1  UNL1        0.2289
     11 N         139.3729  139.2450  160.3654 N.ar    1  UNL1       -0.2129
     12 C         140.2436  139.6713  159.2207 C.ar    1  UNL1        0.0960
     13 C         141.4189  140.4139  159.7838 C.ar    1  UNL1        0.1387
     14 C         142.5414  141.0178  158.9931 C.3     1  UNL1        0.0738
     15 O         141.2746  140.4466  161.2765 O.2     1  UNL1       -0.4392
     16 C         138.4095  139.1034  165.7956 C.ar    1  UNL1        0.1387
     17 C         139.3959  138.1317  165.2188 C.ar    1  UNL1        0.0371
     18 C         139.9294  138.3386  163.8323 C.ar    1  UNL1        0.0078
     19 C         139.4766  139.5172  163.0225 C.ar    1  UNL1        0.0537
     20 C         138.4902  140.4889  163.5993 C.ar    1  UNL1        0.0078
     21 C         137.9566  140.2820  164.9859 C.ar    1  UNL1        0.0371
     22 C         137.0626  137.6764  167.4985 C.3     1  UNL1        0.2525
     23 O         137.8759  138.8964  167.1821 O.3     1  UNL1       -0.4714
     24 C         140.3135  145.4991  160.5994 C.3     1  UNL1        0.0376
     25 C         140.4871  144.6766  161.8417 C.3     1  UNL1        0.1052
     26 C         139.5566  144.0480  162.8363 C.2     1  UNL1        0.2315
     27 O         138.0671  143.9816  163.0005 O.2     1  UNL1       -0.2745
     28 N         140.7327  143.5134  163.5987 N.am    1  UNL1       -0.2546
     29 C         141.6631  144.1420  162.6042 C.3     1  UNL1        0.1249
     30 C         140.9063  142.6910  164.8410 C.ar    1  UNL1        0.0541
     31 C         141.8258  141.5059  164.8335 C.ar    1  UNL1        0.0146
     32 C         141.9994  140.6834  166.0759 C.ar    1  UNL1       -0.0030
     33 C         141.2535  141.0460  167.3257 C.ar    1  UNL1       -0.0227
     34 C         140.3340  142.2311  167.3332 C.ar    1  UNL1       -0.0030
     35 C         140.1604  143.0535  166.0909 C.ar    1  UNL1        0.0146
     36 C         141.4271  140.2236  168.5680 C.3     1  UNL1        0.0189
     37 C         140.1927  140.8447  169.1518 C.3     1  UNL1        0.0044
     38 C         142.6614  139.6025  167.9843 C.3     1  UNL1        0.0044
     39 C         141.6007  139.4011  169.8105 C.3     1  UNL1        0.0044
     40 C         143.1526  144.2084  162.4400 C.2     1  UNL1        0.0692
     41 O         144.0000  144.8131  163.5200 O.co2   1  UNL1       -0.5475
     42 O         143.7948  143.6702  161.1958 O.co2   1  UNL1       -0.5475
@<TRIPOS>UNITY_ATOM_ATTR
41 1
charge -1
@<TRIPOS>BOND
     1    22    23    1
     2    23    16    1
     3    16    17   ar
     4    17    18   ar
     5    18    19   ar
     6    19    10    1
     7    10    11   ar
     8    11    12   ar
     9    12     9    1
    10     9     8    1
    11     8     7    1
    12     7     1    1
    13     1     2   ar
    14     2     3   ar
    15     3     4   ar
    16     4     5   ar
    17     5    24    1
    18    25    24    1
    19    25    26    1
    20    26    27    2
    21    26    28   am
    22    28    30    1
    23    30    31   ar
    24    31    32   ar
    25    32    33   ar
    26    33    36    1
    27    36    37    1
    28    36    38    1
    29    36    39    1
    30    33    34   ar
    31    34    35   ar
    32    28    29    1
    33    29    40    1
    34    40    41   ar
    35    40    42   ar
    36     5     6   ar
    37    12    13   ar
    38    13    14    1
    39    13    15   ar
    40    19    20   ar
    41    20    21   ar
    42    21    16   ar
    43    15    10   ar
    44     6     1   ar
    45    29    25    1
    46    35    30   ar
@<TRIPOS>MOLECULE
*****
 42 46 0 0 0
SMALL
GASTEIGER

@<TRIPOS>ATOM
      1 C         139.2726  143.1789  158.1721 C.ar    1  UNL1        0.1383
      2 C         139.8299  142.6132  156.8996 C.ar    1  UNL1        0.0369
      3 C         139.7326  141.1412  156.6275 C.ar    1  UNL1        0.0028
      4 C         139.0782  140.2352  157.6277 C.ar    1  UNL1       -0.0041
      5 C         138.5209  140.8010  158.9003 C.ar    1  UNL1       -0.0186
      6 C         138.6181  142.2729  159.1724 C.ar    1  UNL1        0.0326
      7 O         139.3698  144.6509  158.4443 O.3     1  UNL1       -0.4751
      8 C         140.3794  145.1669  159.4264 C.3     1  UNL1        0.2118
      9 C         141.6400  144.3950  159.6814 C.3     1  UNL1        0.0960
     10 C         141.8415  142.8342  163.2295 C.ar    1  UNL1        0.2289
     11 N         141.6593  144.0190  162.3278 N.ar    1  UNL1       -0.2129
     12 C         141.7617  143.5421  160.9093 C.ar    1  UNL1        0.0960
     13 C         142.0072  142.0625  160.9343 C.ar    1  UNL1        0.1387
     14 C         142.1741  141.1761  159.7359 C.3     1  UNL1        0.0738
     15 O         142.0565  141.6251  162.3683 O.2     1  UNL1       -0.4392
     16 C         141.7577  142.8965  167.7283 C.ar    1  UNL1        0.1387
     17 C         140.5082  143.1863  166.9508 C.ar    1  UNL1        0.0371
     18 C         140.5361  143.1656  165.4512 C.ar    1  UNL1        0.0078
     19 C         141.8136  142.8550  164.7291 C.ar    1  UNL1        0.0537
     20 C         143.0631  142.5652  165.5066 C.ar    1  UNL1        0.0078
     21 C         143.0352  142.5859  167.0062 C.ar    1  UNL1        0.0371
     22 C         140.6112  143.6105  169.9477 C.3     1  UNL1        0.2525
     23 O         141.7298  142.9173  169.2279 O.3     1  UNL1       -0.4714
     24 C         137.8663  139.8950  159.9006 C.3     1  UNL1        0.0376
     25 C         138.3686  139.8503  161.3133 C.3     1  UNL1        0.1052
     26 C         138.0083  140.5507  162.5899 C.2     1  UNL1        0.2315
     27 O         136.9963  141.5860  162.9825 O.2     1  UNL1       -0.2745
     28 N         139.0791  139.7870  163.3112 N.am    1  UNL1       -0.2546
     29 C         139.4394  139.0866  162.0346 C.3     1  UNL1        0.1249
     30 C         139.5814  139.7422  164.7238 C.ar    1  UNL1        0.0541
     31 C         141.0313  139.4710  164.9961 C.ar    1  UNL1        0.0146
     32 C         141.5336  139.4263  166.4087 C.ar    1  UNL1       -0.0030
     33 C         140.5860  139.6527  167.5492 C.ar    1  UNL1       -0.0227
     34 C         139.1361  139.9239  167.2770 C.ar    1  UNL1       -0.0030
     35 C         138.6338  139.9687  165.8643 C.ar    1  UNL1        0.0146
     36 C         141.0883  139.6080  168.9618 C.3     1  UNL1        0.0189
     37 C         139.7249  139.9882  169.4587 C.3     1  UNL1        0.0044
     38 C         142.4516  139.2279  168.4650 C.3     1  UNL1        0.0044
     39 C         141.5906  139.5633  170.3747 C.3     1  UNL1        0.0044
     40 C         140.4514  138.0513  161.6420 C.2     1  UNL1        0.0692
     41 O         140.8473  136.9820  162.6166 O.co2   1  UNL1       -0.5475
     42 O         141.0674  138.0853  160.2747 O.co2   1  UNL1       -0.5475
@<TRIPOS>UNITY_ATOM_ATTR
41 1
charge -1
@<TRIPOS>BOND
     1    22    23    1
     2    23    16    1
     3    16    17   ar
     4    17    18   ar
     5    18    19   ar
     6    19    10    1
     7    10    11   ar
     8    11    12   ar
     9    12     9    1
    10     9     8    1
    11     8     7    1
    12     7     1    1
    13     1     2   ar
    14     2     3   ar
    15     3     4   ar
    16     4     5   ar
    17     5    24    1
    18    25    24    1
    19    25    26    1
    20    26    27    2
    21    26    28   am
    22    28    30    1
    23    30    31   ar
    24    31    32   ar
    25    32    33   ar
    26    33    36    1
    27    36    37    1
    28    36    38    1
    29    36    39    1
    30    33    34   ar
    31    34    35   ar
    32    28    29    1
    33    29    40    1
    34    40    41   ar
    35    40    42   ar
    36     5     6   ar
    37    12    13   ar
    38    13    14    1
    39    13    15   ar
    40    19    20   ar
    41    20    21   ar
    42    21    16   ar
    43    15    10   ar
    44     6     1   ar
    45    29    25    1
    46    35    30   ar
@<TRIPOS>MOLECULE
*****
 42 46 0 0 0
SMALL
GASTEIGER

@<TRIPOS>ATOM
      1 C         138.8739  140.7489  157.5034 C.ar    1  UNL1        0.1383
      2 C         140.1206  139.9223  157.3926 C.ar    1  UNL1        0.0369
      3 C         140.4657  138.9376  158.4704 C.ar    1  UNL1        0.0028
      4 C         139.5642  138.7797  159.6587 C.ar    1  UNL1       -0.0041
      5 C         138.3174  139.6064  159.7694 C.ar    1  UNL1       -0.0186
      6 C         137.9723  140.5910  158.6917 C.ar    1  UNL1        0.0326
      7 O         138.5287  141.7337  156.4257 O.3     1  UNL1       -0.4751
      8 C         139.3945  142.9386  156.2055 C.3     1  UNL1        0.2118
      9 C         139.4644  144.0129  157.2500 C.3     1  UNL1        0.0960
     10 C         141.6977  143.2396  160.3289 C.ar    1  UNL1        0.2289
     11 N         140.4897  142.9627  159.4840 N.ar    1  UNL1       -0.2129
     12 C         140.4914  143.9332  158.3403 C.ar    1  UNL1        0.0960
     13 C         141.7006  144.8100  158.4783 C.ar    1  UNL1        0.1387
     14 C         142.0951  145.9205  157.5503 C.3     1  UNL1        0.0738
     15 O         142.4462  144.3813  159.7073 O.2     1  UNL1       -0.4392
     16 C         142.8708  141.0329  164.0711 C.ar    1  UNL1        0.1387
     17 C         141.9617  140.3826  163.0708 C.ar    1  UNL1        0.0371
     18 C         141.5706  141.1182  161.8234 C.ar    1  UNL1        0.0078
     19 C         142.0888  142.5040  161.5763 C.ar    1  UNL1        0.0537
     20 C         142.9979  143.1542  162.5766 C.ar    1  UNL1        0.0078
     21 C         143.3889  142.4186  163.8240 C.ar    1  UNL1        0.0371
     22 C         142.8007  138.8861  165.5328 C.3     1  UNL1        0.2525
     23 O         143.2618  140.2973  165.3185 O.3     1  UNL1       -0.4714
     24 C         137.4158  139.4485  160.9577 C.3     1  UNL1        0.0376
     25 C         137.9224  139.7729  162.3318 C.3     1  UNL1        0.1052
     26 C         138.5079  138.9784  163.4614 C.2     1  UNL1        0.2315
     27 O         138.8294  137.5303  163.6848 O.2     1  UNL1       -0.2745
     28 N         138.6389  140.2317  164.2751 N.am    1  UNL1       -0.2546
     29 C         138.0534  141.0262  163.1456 C.3     1  UNL1        0.1249
     30 C         139.1455  140.5561  165.6492 C.ar    1  UNL1        0.0541
     31 C         138.8662  139.6241  166.7909 C.ar    1  UNL1        0.0146
     32 C         139.3728  139.9485  168.1650 C.ar    1  UNL1       -0.0030
     33 C         140.1586  141.2048  168.3974 C.ar    1  UNL1       -0.0227
     34 C         140.4378  142.1368  167.2557 C.ar    1  UNL1       -0.0030
     35 C         139.9312  141.8124  165.8817 C.ar    1  UNL1        0.0146
     36 C         140.6652  141.5292  169.7714 C.3     1  UNL1        0.0189
     37 C         140.7840  140.0647  170.0734 C.3     1  UNL1        0.0044
     38 C         140.5465  142.9937  169.4695 C.3     1  UNL1        0.0044
     39 C         141.1719  141.8536  171.1457 C.3     1  UNL1        0.0044
     40 C         137.7320  142.4743  162.9222 C.2     1  UNL1        0.0692
     41 O         137.4468  143.3684  164.0924 O.co2   1  UNL1       -0.5475
     42 O         137.6956  143.0282  161.5287 O.co2   1  UNL1       -0.5475
@<TRIPOS>UNITY_ATOM_ATTR
41 1
charge -1
@<TRIPOS>BOND
     1    22    23    1
     2    23    16    1
     3    16    17   ar
     4    17    18   ar
     5    18    19   ar
     6    19    10    1
     7    10    11   ar
     8    11    12   ar
     9    12     9    1
    10     9     8    1
    11     8     7    1
    12     7     1    1
    13     1     2   ar
    14     2     3   ar
    15     3     4   ar
    16     4     5   ar
    17     5    24    1
    18    25    24    1
    19    25    26    1
    20    26    27    2
    21    26    28   am
    22    28    30    1
    23    30    31   ar
    24    31    32   ar
    25    32    33   ar
    26    33    36    1
    27    36    37    1
    28    36    38    1
    29    36    39    1
    30    33    34   ar
    31    34    35   ar
    32    28    29    1
    33    29    40    1
    34    40    41   ar
    35    40    42   ar
    36     5     6   ar
    37    12    13   ar
    38    13    14    1
    39    13    15   ar
    40    19    20   ar
    41    20    21   ar
    42    21    16   ar
    43    15    10   ar
    44     6     1   ar
    45    29    25    1
    46    35    30   ar
@<TRIPOS>MOLECULE
*****
 42 46 0 0 0
SMALL
GASTEIGER

@<TRIPOS>ATOM
      1 C         142.3178  140.8329  158.0204 C.ar    1  UNL1        0.1383
      2 C         141.4232  139.7833  157.4308 C.ar    1  UNL1        0.0369
      3 C         141.4693  138.3783  157.9544 C.ar    1  UNL1        0.0028
      4 C         142.4100  138.0231  159.0674 C.ar    1  UNL1       -0.0041
      5 C         143.3046  139.0729  159.6569 C.ar    1  UNL1       -0.0186
      6 C         143.2586  140.4778  159.1335 C.ar    1  UNL1        0.0326
      7 O         142.2718  142.2380  157.4969 O.3     1  UNL1       -0.4751
      8 C         142.2100  143.3926  158.4524 C.3     1  UNL1        0.2118
      9 C         141.0440  143.5323  159.3855 C.3     1  UNL1        0.0960
     10 C         140.5342  141.7910  162.8168 C.ar    1  UNL1        0.2289
     11 N         140.0368  142.1707  161.4535 N.ar    1  UNL1       -0.2129
     12 C         141.1164  142.9547  160.7680 C.ar    1  UNL1        0.0960
     13 C         142.2809  143.0596  161.7075 C.ar    1  UNL1        0.1387
     14 C         143.5776  143.7606  161.4297 C.3     1  UNL1        0.0738
     15 O         141.9211  142.3404  162.9738 O.2     1  UNL1       -0.4392
     16 C         138.2641  139.4203  165.8952 C.ar    1  UNL1        0.1387
     17 C         139.0921  140.5980  166.3164 C.ar    1  UNL1        0.0371
     18 C         139.8488  141.3882  165.2902 C.ar    1  UNL1        0.0078
     19 C         139.7775  141.0008  163.8429 C.ar    1  UNL1        0.0537
     20 C         138.9495  139.8231  163.4217 C.ar    1  UNL1        0.0078
     21 C         138.1928  139.0329  164.4479 C.ar    1  UNL1        0.0371
     22 C         137.4435  137.1349  166.8190 C.3     1  UNL1        0.2525
     23 O         137.5074  138.6301  166.9213 O.3     1  UNL1       -0.4714
     24 C         144.2454  138.7178  160.7700 C.3     1  UNL1        0.0376
     25 C         143.9483  139.1590  162.1725 C.3     1  UNL1        0.1052
     26 C         144.5301  140.1746  163.1107 C.2     1  UNL1        0.2315
     27 O         145.6500  141.1696  163.0350 O.2     1  UNL1       -0.2745
     28 N         143.5281  139.7829  164.1561 N.am    1  UNL1       -0.2546
     29 C         142.9463  138.7674  163.2179 C.3     1  UNL1        0.1249
     30 C         143.2310  140.2240  165.5586 C.ar    1  UNL1        0.0541
     31 C         142.8888  139.2081  166.6078 C.ar    1  UNL1        0.0146
     32 C         142.5917  139.6493  168.0103 C.ar    1  UNL1       -0.0030
     33 C         142.6368  141.1064  168.3636 C.ar    1  UNL1       -0.0227
     34 C         142.9790  142.1222  167.3145 C.ar    1  UNL1       -0.0030
     35 C         143.2761  141.6811  165.9120 C.ar    1  UNL1        0.0146
     36 C         142.3397  141.5476  169.7661 C.3     1  UNL1        0.0189
     37 C         141.0140  140.8483  169.7053 C.3     1  UNL1        0.0044
     38 C         143.6654  142.2468  169.8270 C.3     1  UNL1        0.0044
     39 C         142.0426  141.9887  171.1688 C.3     1  UNL1        0.0044
     40 C         141.8264  137.7723  163.2936 C.2     1  UNL1        0.0692
     41 O         141.0771  137.3904  162.0515 O.co2   1  UNL1       -0.5475
     42 O         141.4558  137.1591  164.6114 O.co2   1  UNL1       -0.5475
@<TRIPOS>UNITY_ATOM_ATTR
41 1
charge -1
@<TRIPOS>BOND
     1    22    23    1
     2    23    16    1
     3    16    17   ar
     4    17    18   ar
     5    18    19   ar
     6    19    10    1
     7    10    11   ar
     8    11    12   ar
     9    12     9    1
    10     9     8    1
    11     8     7    1
    12     7     1    1
    13     1     2   ar
    14     2     3   ar
    15     3     4   ar
    16     4     5   ar
    17     5    24    1
    18    25    24    1
    19    25    26    1
    20    26    27    2
    21    26    28   am
    22    28    30    1
    23    30    31   ar
    24    31    32   ar
    25    32    33   ar
    26    33    36    1
    27    36    37    1
    28    36    38    1
    29    36    39    1
    30    33    34   ar
    31    34    35   ar
    32    28    29    1
    33    29    40    1
    34    40    41   ar
    35    40    42   ar
    36     5     6   ar
    37    12    13   ar
    38    13    14    1
    39    13    15   ar
    40    19    20   ar
    41    20    21   ar
    42    21    16   ar
    43    15    10   ar
    44     6     1   ar
    45    29    25    1
    46    35    30   ar
@<TRIPOS>MOLECULE
*****
 42 46 0 0 0
SMALL
GASTEIGER

@<TRIPOS>ATOM
      1 C         141.2893  141.5242  157.3577 C.ar    1  UNL1        0.1383
      2 C         141.9871  142.6464  156.6481 C.ar    1  UNL1        0.0369
      3 C         143.3347  143.1081  157.1181 C.ar    1  UNL1        0.0028
      4 C         143.9844  142.4477  158.2978 C.ar    1  UNL1       -0.0041
      5 C         143.2865  141.3254  159.0074 C.ar    1  UNL1       -0.0186
      6 C         141.9390  140.8637  158.5374 C.ar    1  UNL1        0.0326
      7 O         139.9417  141.0624  156.8877 O.3     1  UNL1       -0.4751
      8 C         138.8472  142.0606  156.6516 C.3     1  UNL1        0.2118
      9 C         138.0353  142.5703  157.8052 C.3     1  UNL1        0.0960
     10 C         138.8396  141.4361  161.4291 C.ar    1  UNL1        0.2289
     11 N         138.1186  141.2487  160.1272 N.ar    1  UNL1       -0.2129
     12 C         138.5186  142.3666  159.2105 C.ar    1  UNL1        0.0960
     13 C         139.4870  143.2449  159.9459 C.ar    1  UNL1        0.1387
     14 C         140.1419  144.4813  159.4051 C.3     1  UNL1        0.0738
     15 O         139.6853  142.6699  161.3170 O.2     1  UNL1       -0.4392
     16 C         138.5214  138.7661  165.0373 C.ar    1  UNL1        0.1387
     17 C         138.1705  140.2203  165.1471 C.ar    1  UNL1        0.0371
     18 C         138.2765  141.1103  163.9444 C.ar    1  UNL1        0.0078
     19 C         138.7335  140.5461  162.6318 C.ar    1  UNL1        0.0537
     20 C         139.0844  139.0919  162.5220 C.ar    1  UNL1        0.0078
     21 C         138.9784  138.2019  163.7248 C.ar    1  UNL1        0.0371
     22 C         137.3196  138.0949  167.2408 C.3     1  UNL1        0.2525
     23 O         138.4153  137.8760  166.2401 O.3     1  UNL1       -0.4714
     24 C         143.9362  140.6649  160.1871 C.3     1  UNL1        0.0376
     25 C         143.3440  140.8241  161.5560 C.3     1  UNL1        0.1052
     26 C         142.6999  139.9004  162.5470 C.2     1  UNL1        0.2315
     27 O         142.3813  138.4350  162.5795 O.2     1  UNL1       -0.2745
     28 N         142.5064  141.0492  163.4919 N.am    1  UNL1       -0.2546
     29 C         143.1505  141.9728  162.5010 C.3     1  UNL1        0.1249
     30 C         141.9141  141.2084  164.8608 C.ar    1  UNL1        0.0541
     31 C         141.2956  142.5143  165.2632 C.ar    1  UNL1        0.0146
     32 C         140.7033  142.6735  166.6321 C.ar    1  UNL1       -0.0030
     33 C         140.7296  141.5267  167.5986 C.ar    1  UNL1       -0.0227
     34 C         141.3481  140.2208  167.1962 C.ar    1  UNL1       -0.0030
     35 C         141.9404  140.0616  165.8273 C.ar    1  UNL1        0.0146
     36 C         140.1374  141.6858  168.9675 C.3     1  UNL1        0.0189
     37 C         140.5031  143.1406  168.9566 C.3     1  UNL1        0.0044
     38 C         139.7717  140.2312  168.9784 C.3     1  UNL1        0.0044
     39 C         139.5451  141.8450  170.3365 C.3     1  UNL1        0.0044
     40 C         143.4691  143.4383  162.4684 C.2     1  UNL1        0.0692
     41 O         142.9981  144.2829  161.3217 O.co2   1  UNL1       -0.5475
     42 O         144.2587  144.0591  163.5825 O.co2   1  UNL1       -0.5475
@<TRIPOS>UNITY_ATOM_ATTR
41 1
charge -1
@<TRIPOS>BOND
     1    22    23    1
     2    23    16    1
     3    16    17   ar
     4    17    18   ar
     5    18    19   ar
     6    19    10    1
     7    10    11   ar
     8    11    12   ar
     9    12     9    1
    10     9     8    1
    11     8     7    1
    12     7     1    1
    13     1     2   ar
    14     2     3   ar
    15     3     4   ar
    16     4     5   ar
    17     5    24    1
    18    25    24    1
    19    25    26    1
    20    26    27    2
    21    26    28   am
    22    28    30    1
    23    30    31   ar
    24    31    32   ar
    25    32    33   ar
    26    33    36    1
    27    36    37    1
    28    36    38    1
    29    36    39    1
    30    33    34   ar
    31    34    35   ar
    32    28    29    1
    33    29    40    1
    34    40    41   ar
    35    40    42   ar
    36     5     6   ar
    37    12    13   ar
    38    13    14    1
    39    13    15   ar
    40    19    20   ar
    41    20    21   ar
    42    21    16   ar
    43    15    10   ar
    44     6     1   ar
    45    29    25    1
    46    35    30   ar
