@<TRIPOS>MOLECULE
*****
 26 29 0 0 0
SMALL
GASTEIGER

@<TRIPOS>ATOM
      1 C         138.6252  139.3143  163.5817 C.ar    1  UNL1       -0.0221
      2 C         138.5180  138.1271  164.4922 C.ar    1  UNL1       -0.0030
      3 C         138.8858  138.2573  165.9406 C.ar    1  UNL1        0.0143
      4 C         139.3607  139.5745  166.4785 C.ar    1  UNL1        0.0497
      5 C         139.4678  140.7617  165.5679 C.ar    1  UNL1        0.0304
      6 C         139.1001  140.6316  164.1195 C.ar    1  UNL1       -0.0015
      7 C         139.9150  142.1553  165.8967 C.2     1  UNL1        0.0783
      8 N         140.3655  142.7057  167.2173 N.2     1  UNL1       -0.2444
      9 C         140.4800  141.9987  168.5353 C.ar    1  UNL1        0.0946
     10 C         140.9732  142.9208  169.6108 C.ar    1  UNL1        0.0204
     11 C         141.1587  142.4106  171.0090 C.ar    1  UNL1        0.0016
     12 C         140.8510  140.9785  171.3319 C.ar    1  UNL1        0.0014
     13 C         140.3579  140.0564  170.2565 C.ar    1  UNL1        0.0161
     14 C         140.1724  140.5666  168.8582 C.ar    1  UNL1        0.0662
     15 N         139.6742  139.4877  167.9427 N.pl3   1  UNL1       -0.3113
     16 H         139.5346  138.6060  168.3579 H       1  UNL1        0.1523
     17 C         139.9112  143.1267  164.7538 C.2     1  UNL1       -0.0061
     18 C         141.1515  143.3245  163.9335 C.2     1  UNL1       -0.0132
     19 C         141.1476  144.2960  162.7906 C.3     1  UNL1        0.0796
     20 C         142.3878  144.4938  161.9704 C.3     1  UNL1        0.0222
     21 N         139.9037  145.0696  162.4679 N.3     1  UNL1       -0.2688
     22 C         139.8999  146.0410  161.3251 C.3     1  UNL1        0.0899
     23 C         138.6634  144.8717  163.2882 C.3     1  UNL1        0.0771
     24 C         138.6673  143.9003  164.4311 C.3     1  UNL1        0.0449
     25 C         138.9505  138.1706  161.2717 C.3     1  UNL1        0.0050
     26 C         138.2575  139.1842  162.1333 C.3     1  UNL1        0.0264
@<TRIPOS>BOND
     1    25    26    1
     2    26     1    1
     3     1     2   ar
     4     2     3   ar
     5     3     4   ar
     6     4     5   ar
     7     5     6   ar
     8     5     7    1
     9     7    17    1
    10    17    18    2
    11    18    19    1
    12    19    20    1
    13    19    21    1
    14    21    22    1
    15    21    23    1
    16    23    24    1
    17     7     8    2
    18     8     9    1
    19     9    10   ar
    20    10    11   ar
    21    11    12   ar
    22    12    13   ar
    23    13    14   ar
    24    14    15    1
    25     6     1   ar
    26    24    17    1
    27    14     9   ar
    28    15     4    1
    29    15    16    1
@<TRIPOS>MOLECULE
*****
 26 29 0 0 0
SMALL
GASTEIGER

@<TRIPOS>ATOM
      1 C         143.0049  139.9797  163.0818 C.ar    1  UNL1       -0.0221
      2 C         143.5748  138.8139  163.8340 C.ar    1  UNL1       -0.0030
      3 C         143.4816  138.7689  165.3304 C.ar    1  UNL1        0.0143
      4 C         142.8185  139.8898  166.0746 C.ar    1  UNL1        0.0497
      5 C         142.2486  141.0557  165.3224 C.ar    1  UNL1        0.0304
      6 C         142.3418  141.1007  163.8260 C.ar    1  UNL1       -0.0015
      7 C         141.5519  142.2684  165.8647 C.2     1  UNL1        0.0783
      8 N         141.2531  142.6145  167.2933 N.2     1  UNL1       -0.2444
      9 C         141.5770  141.8336  168.5324 C.ar    1  UNL1        0.0946
     10 C         141.0991  142.5403  169.7661 C.ar    1  UNL1        0.0204
     11 C         141.3239  141.9269  171.1163 C.ar    1  UNL1        0.0016
     12 C         142.0268  140.6069  171.2328 C.ar    1  UNL1        0.0014
     13 C         142.5048  139.9003  169.9991 C.ar    1  UNL1        0.0161
     14 C         142.2799  140.5136  168.6489 C.ar    1  UNL1        0.0662
     15 N         142.8324  139.6486  167.5550 N.pl3   1  UNL1       -0.3113
     16 H         143.2608  138.8118  167.8474 H       1  UNL1        0.1523
     17 C         141.0936  143.2668  164.8435 C.2     1  UNL1       -0.0061
     18 C         139.6575  143.2915  164.4107 C.2     1  UNL1       -0.0132
     19 C         139.1992  144.2900  163.3894 C.3     1  UNL1        0.0796
     20 C         137.7632  144.3147  162.9566 C.3     1  UNL1        0.0222
     21 N         140.1767  145.2638  162.8010 N.3     1  UNL1       -0.2688
     22 C         139.7183  146.2622  161.7798 C.3     1  UNL1        0.0899
     23 C         141.6127  145.2391  163.2339 C.3     1  UNL1        0.0771
     24 C         142.0711  144.2406  164.2551 C.3     1  UNL1        0.0449
     25 C         144.0358  139.1024  160.8642 C.3     1  UNL1        0.0050
     26 C         143.0981  140.0247  161.5853 C.3     1  UNL1        0.0264
@<TRIPOS>BOND
     1    25    26    1
     2    26     1    1
     3     1     2   ar
     4     2     3   ar
     5     3     4   ar
     6     4     5   ar
     7     5     6   ar
     8     5     7    1
     9     7    17    1
    10    17    18    2
    11    18    19    1
    12    19    20    1
    13    19    21    1
    14    21    22    1
    15    21    23    1
    16    23    24    1
    17     7     8    2
    18     8     9    1
    19     9    10   ar
    20    10    11   ar
    21    11    12   ar
    22    12    13   ar
    23    13    14   ar
    24    14    15    1
    25     6     1   ar
    26    24    17    1
    27    14     9   ar
    28    15     4    1
    29    15    16    1
@<TRIPOS>MOLECULE
*****
 26 29 0 0 0
SMALL
GASTEIGER

@<TRIPOS>ATOM
      1 C         138.9838  138.0019  165.1707 C.ar    1  UNL1       -0.0221
      2 C         138.7971  137.6340  163.7287 C.ar    1  UNL1       -0.0030
      3 C         139.6646  138.2593  162.6767 C.ar    1  UNL1        0.0143
      4 C         140.7188  139.2523  163.0669 C.ar    1  UNL1        0.0497
      5 C         140.9056  139.6203  164.5090 C.ar    1  UNL1        0.0304
      6 C         140.0381  138.9951  165.5610 C.ar    1  UNL1       -0.0015
      7 C         141.8895  140.5802  165.1095 C.2     1  UNL1        0.0783
      8 N         142.9297  141.4092  164.4161 N.2     1  UNL1       -0.2444
      9 C         143.2428  141.4832  162.9510 C.ar    1  UNL1        0.0946
     10 C         144.3632  142.4424  162.6778 C.ar    1  UNL1        0.0204
     11 C         144.8339  142.6647  161.2711 C.ar    1  UNL1        0.0016
     12 C         144.1842  141.9278  160.1375 C.ar    1  UNL1        0.0014
     13 C         143.0638  140.9686  160.4107 C.ar    1  UNL1        0.0161
     14 C         142.5931  140.7463  161.8175 C.ar    1  UNL1        0.0662
     15 N         141.4699  139.7535  161.8691 N.pl3   1  UNL1       -0.3113
     16 H         141.1883  139.3816  161.0021 H       1  UNL1        0.1523
     17 C         141.8247  140.7309  166.6005 C.2     1  UNL1       -0.0061
     18 C         141.1387  141.9201  167.2050 C.2     1  UNL1       -0.0132
     19 C         141.0740  142.0708  168.6960 C.3     1  UNL1        0.0796
     20 C         140.3880  143.2600  169.3004 C.3     1  UNL1        0.0222
     21 N         141.6951  141.0324  169.5825 N.3     1  UNL1       -0.2688
     22 C         141.6303  141.1832  171.0734 C.3     1  UNL1        0.0899
     23 C         142.3811  139.8432  168.9780 C.3     1  UNL1        0.0771
     24 C         142.4459  139.6925  167.4870 C.3     1  UNL1        0.0449
     25 C         137.3735  138.2441  167.1951 C.3     1  UNL1        0.0050
     26 C         138.1164  137.3767  166.2227 C.3     1  UNL1        0.0264
@<TRIPOS>BOND
     1    25    26    1
     2    26     1    1
     3     1     2   ar
     4     2     3   ar
     5     3     4   ar
     6     4     5   ar
     7     5     6   ar
     8     5     7    1
     9     7    17    1
    10    17    18    2
    11    18    19    1
    12    19    20    1
    13    19    21    1
    14    21    22    1
    15    21    23    1
    16    23    24    1
    17     7     8    2
    18     8     9    1
    19     9    10   ar
    20    10    11   ar
    21    11    12   ar
    22    12    13   ar
    23    13    14   ar
    24    14    15    1
    25     6     1   ar
    26    24    17    1
    27    14     9   ar
    28    15     4    1
    29    15    16    1
@<TRIPOS>MOLECULE
*****
 26 29 0 0 0
SMALL
GASTEIGER

@<TRIPOS>ATOM
      1 C         144.1257  139.4580  164.7325 C.ar    1  UNL1       -0.0221
      2 C         144.4206  139.4332  163.2620 C.ar    1  UNL1       -0.0030
      3 C         143.8226  140.4714  162.3595 C.ar    1  UNL1        0.0143
      4 C         142.9298  141.5345  162.9274 C.ar    1  UNL1        0.0497
      5 C         142.6349  141.5594  164.3980 C.ar    1  UNL1        0.0304
      6 C         143.2329  140.5212  165.3005 C.ar    1  UNL1       -0.0015
      7 C         141.7781  142.5234  165.1639 C.2     1  UNL1        0.0783
      8 N         141.0047  143.7007  164.6484 N.2     1  UNL1       -0.2444
      9 C         140.8968  144.2047  163.2397 C.ar    1  UNL1        0.0946
     10 C         140.0165  145.4163  163.1570 C.ar    1  UNL1        0.0204
     11 C         139.7753  146.0792  161.8333 C.ar    1  UNL1        0.0016
     12 C         140.4143  145.5304  160.5922 C.ar    1  UNL1        0.0014
     13 C         141.2947  144.3187  160.6748 C.ar    1  UNL1        0.0161
     14 C         141.5359  143.6559  161.9986 C.ar    1  UNL1        0.0662
     15 N         142.4407  142.4675  161.8597 N.pl3   1  UNL1       -0.3113
     16 H         142.7550  142.2744  160.9469 H       1  UNL1        0.1523
     17 C         141.6822  142.2778  166.6405 C.2     1  UNL1       -0.0061
     18 C         142.8837  142.4836  167.5147 C.2     1  UNL1       -0.0132
     19 C         142.7877  142.2379  168.9913 C.3     1  UNL1        0.0796
     20 C         143.9892  142.4437  169.8654 C.3     1  UNL1        0.0222
     21 N         141.4904  141.7864  169.5938 N.3     1  UNL1       -0.2688
     22 C         141.3945  141.5407  171.0704 C.3     1  UNL1        0.0899
     23 C         140.2889  141.5805  168.7196 C.3     1  UNL1        0.0771
     24 C         140.3849  141.8262  167.2430 C.3     1  UNL1        0.0449
     25 C         143.9153  137.8515  166.7634 C.3     1  UNL1        0.0050
     26 C         144.7237  138.4198  165.6350 C.3     1  UNL1        0.0264
@<TRIPOS>BOND
     1    25    26    1
     2    26     1    1
     3     1     2   ar
     4     2     3   ar
     5     3     4   ar
     6     4     5   ar
     7     5     6   ar
     8     5     7    1
     9     7    17    1
    10    17    18    2
    11    18    19    1
    12    19    20    1
    13    19    21    1
    14    21    22    1
    15    21    23    1
    16    23    24    1
    17     7     8    2
    18     8     9    1
    19     9    10   ar
    20    10    11   ar
    21    11    12   ar
    22    12    13   ar
    23    13    14   ar
    24    14    15    1
    25     6     1   ar
    26    24    17    1
    27    14     9   ar
    28    15     4    1
    29    15    16    1
@<TRIPOS>MOLECULE
*****
 26 29 0 0 0
SMALL
GASTEIGER

@<TRIPOS>ATOM
      1 C         143.1936  143.1372  165.0235 C.ar    1  UNL1       -0.0221
      2 C         143.9114  144.3354  164.4767 C.ar    1  UNL1       -0.0030
      3 C         143.5702  144.8558  163.1118 C.ar    1  UNL1        0.0143
      4 C         142.5113  144.1780  162.2938 C.ar    1  UNL1        0.0497
      5 C         141.7934  142.9798  162.8406 C.ar    1  UNL1        0.0304
      6 C         142.1346  142.4594  164.2055 C.ar    1  UNL1       -0.0015
      7 C         140.7139  142.1615  162.1963 C.2     1  UNL1        0.0783
      8 N         140.0855  142.3396  160.8459 N.2     1  UNL1       -0.2444
      9 C         140.3814  143.3797  159.8064 C.ar    1  UNL1        0.0946
     10 C         139.5217  143.1995  158.5906 C.ar    1  UNL1        0.0204
     11 C         139.6594  144.1383  157.4288 C.ar    1  UNL1        0.0016
     12 C         140.6568  145.2573  157.4829 C.ar    1  UNL1        0.0014
     13 C         141.5166  145.4375  158.6988 C.ar    1  UNL1        0.0161
     14 C         141.3789  144.4987  159.8605 C.ar    1  UNL1        0.0662
     15 N         142.3267  144.8539  160.9675 N.pl3   1  UNL1       -0.3113
     16 H         142.9041  145.6339  160.8017 H       1  UNL1        0.1523
     17 C         140.1940  141.0136  163.0099 C.2     1  UNL1       -0.0061
     18 C         140.8966  139.6888  162.9723 C.2     1  UNL1       -0.0132
     19 C         140.3766  138.5409  163.7859 C.3     1  UNL1        0.0796
     20 C         141.0791  137.2162  163.7483 C.3     1  UNL1        0.0222
     21 N         139.1542  138.7177  164.6370 N.3     1  UNL1       -0.2688
     22 C         138.6343  137.5698  165.4506 C.3     1  UNL1        0.0899
     23 C         138.4516  140.0425  164.6746 C.3     1  UNL1        0.0771
     24 C         138.9716  141.1905  163.8610 C.3     1  UNL1        0.0449
     25 C         142.5761  141.7158  167.1087 C.3     1  UNL1        0.0050
     26 C         143.5348  142.6169  166.3883 C.3     1  UNL1        0.0264
@<TRIPOS>BOND
     1    25    26    1
     2    26     1    1
     3     1     2   ar
     4     2     3   ar
     5     3     4   ar
     6     4     5   ar
     7     5     6   ar
     8     5     7    1
     9     7    17    1
    10    17    18    2
    11    18    19    1
    12    19    20    1
    13    19    21    1
    14    21    22    1
    15    21    23    1
    16    23    24    1
    17     7     8    2
    18     8     9    1
    19     9    10   ar
    20    10    11   ar
    21    11    12   ar
    22    12    13   ar
    23    13    14   ar
    24    14    15    1
    25     6     1   ar
    26    24    17    1
    27    14     9   ar
    28    15     4    1
    29    15    16    1
@<TRIPOS>MOLECULE
*****
 26 29 0 0 0
SMALL
GASTEIGER

@<TRIPOS>ATOM
      1 C         139.3805  138.6880  163.7985 C.ar    1  UNL1       -0.0221
      2 C         138.4870  138.1733  164.8878 C.ar    1  UNL1       -0.0030
      3 C         138.6806  138.6403  166.3000 C.ar    1  UNL1        0.0143
      4 C         139.7676  139.6221  166.6230 C.ar    1  UNL1        0.0497
      5 C         140.6611  140.1370  165.5337 C.ar    1  UNL1        0.0304
      6 C         140.4676  139.6699  164.1214 C.ar    1  UNL1       -0.0015
      7 C         141.7963  141.1120  165.6377 C.2     1  UNL1        0.0783
      8 N         142.3183  141.8129  166.8568 N.2     1  UNL1       -0.2444
      9 C         141.8341  141.7121  168.2729 C.ar    1  UNL1        0.0946
     10 C         142.6381  142.5847  169.1904 C.ar    1  UNL1        0.0204
     11 C         142.3164  142.6306  170.6548 C.ar    1  UNL1        0.0016
     12 C         141.1906  141.8038  171.2016 C.ar    1  UNL1        0.0014
     13 C         140.3865  140.9312  170.2840 C.ar    1  UNL1        0.0161
     14 C         140.7083  140.8853  168.8197 C.ar    1  UNL1        0.0662
     15 N         139.7886  139.9552  168.0854 N.pl3   1  UNL1       -0.3113
     16 H         139.1089  139.5036  168.6361 H       1  UNL1        0.1523
     17 C         142.5029  141.4277  164.3528 C.2     1  UNL1       -0.0061
     18 C         142.0138  142.5482  163.4836 C.2     1  UNL1       -0.0132
     19 C         142.7204  142.8639  162.1987 C.3     1  UNL1        0.0796
     20 C         142.2313  143.9844  161.3296 C.3     1  UNL1        0.0222
     21 N         143.9160  142.0592  161.7829 N.3     1  UNL1       -0.2688
     22 C         144.6226  142.3750  160.4980 C.3     1  UNL1        0.0899
     23 C         144.4051  140.9387  162.6520 C.3     1  UNL1        0.0771
     24 C         143.6985  140.6230  163.9370 C.3     1  UNL1        0.0449
     25 C         137.8435  138.3489  161.7315 C.3     1  UNL1        0.0050
     26 C         139.1869  138.2210  162.3863 C.3     1  UNL1        0.0264
@<TRIPOS>BOND
     1    25    26    1
     2    26     1    1
     3     1     2   ar
     4     2     3   ar
     5     3     4   ar
     6     4     5   ar
     7     5     6   ar
     8     5     7    1
     9     7    17    1
    10    17    18    2
    11    18    19    1
    12    19    20    1
    13    19    21    1
    14    21    22    1
    15    21    23    1
    16    23    24    1
    17     7     8    2
    18     8     9    1
    19     9    10   ar
    20    10    11   ar
    21    11    12   ar
    22    12    13   ar
    23    13    14   ar
    24    14    15    1
    25     6     1   ar
    26    24    17    1
    27    14     9   ar
    28    15     4    1
    29    15    16    1
@<TRIPOS>MOLECULE
*****
 26 29 0 0 0
SMALL
GASTEIGER

@<TRIPOS>ATOM
      1 C         138.3852  143.4591  164.0801 C.ar    1  UNL1       -0.0221
      2 C         138.0442  143.4118  162.6202 C.ar    1  UNL1       -0.0030
      3 C         138.7883  142.4843  161.7059 C.ar    1  UNL1        0.0143
      4 C         139.8734  141.6041  162.2515 C.ar    1  UNL1        0.0497
      5 C         140.2145  141.6513  163.7114 C.ar    1  UNL1        0.0304
      6 C         139.4703  142.5788  164.6258 C.ar    1  UNL1       -0.0015
      7 C         141.2528  140.8648  164.4553 C.2     1  UNL1        0.0783
      8 N         142.2065  139.8368  163.9228 N.2     1  UNL1       -0.2444
      9 C         142.3575  139.3413  162.5151 C.ar    1  UNL1        0.0946
     10 C         143.4361  138.3041  162.4119 C.ar    1  UNL1        0.0204
     11 C         143.7493  137.6771  161.0857 C.ar    1  UNL1        0.0016
     12 C         142.9838  138.0874  159.8627 C.ar    1  UNL1        0.0014
     13 C         141.9052  139.1246  159.9659 C.ar    1  UNL1        0.0161
     14 C         141.5921  139.7515  161.2921 C.ar    1  UNL1        0.0662
     15 N         140.4866  140.7586  161.1748 N.pl3   1  UNL1       -0.3113
     16 H         140.1141  140.8808  160.2717 H       1  UNL1        0.1523
     17 C         141.3502  141.1431  165.9260 C.2     1  UNL1       -0.0061
     18 C         140.3078  140.6063  166.8616 C.2     1  UNL1       -0.0132
     19 C         140.4053  140.8847  168.3323 C.3     1  UNL1        0.0796
     20 C         139.3629  140.3479  169.2678 C.3     1  UNL1        0.0222
     21 N         141.5451  141.6998  168.8675 N.3     1  UNL1       -0.2688
     22 C         141.6425  141.9781  170.3381 C.3     1  UNL1        0.0899
     23 C         142.5875  142.2366  167.9319 C.3     1  UNL1        0.0771
     24 C         142.4900  141.9582  166.4612 C.3     1  UNL1        0.0449
     25 C         138.3863  145.1801  166.0264 C.3     1  UNL1        0.0050
     26 C         137.6411  144.3866  164.9945 C.3     1  UNL1        0.0264
@<TRIPOS>BOND
     1    25    26    1
     2    26     1    1
     3     1     2   ar
     4     2     3   ar
     5     3     4   ar
     6     4     5   ar
     7     5     6   ar
     8     5     7    1
     9     7    17    1
    10    17    18    2
    11    18    19    1
    12    19    20    1
    13    19    21    1
    14    21    22    1
    15    21    23    1
    16    23    24    1
    17     7     8    2
    18     8     9    1
    19     9    10   ar
    20    10    11   ar
    21    11    12   ar
    22    12    13   ar
    23    13    14   ar
    24    14    15    1
    25     6     1   ar
    26    24    17    1
    27    14     9   ar
    28    15     4    1
    29    15    16    1
@<TRIPOS>MOLECULE
*****
 26 29 0 0 0
SMALL
GASTEIGER

@<TRIPOS>ATOM
      1 C         139.7804  144.1940  163.3710 C.ar    1  UNL1       -0.0221
      2 C         139.1283  144.8033  164.5765 C.ar    1  UNL1       -0.0030
      3 C         139.3533  144.2052  165.9336 C.ar    1  UNL1        0.0143
      4 C         140.2303  142.9978  166.0851 C.ar    1  UNL1        0.0497
      5 C         140.8824  142.3885  164.8795 C.ar    1  UNL1        0.0304
      6 C         140.6575  142.9865  163.5224 C.ar    1  UNL1       -0.0015
      7 C         141.7865  141.1935  164.8087 C.2     1  UNL1        0.0783
      8 N         142.2616  140.3129  165.9261 N.2     1  UNL1       -0.2444
      9 C         141.9502  140.4095  167.3903 C.ar    1  UNL1        0.0946
     10 C         142.6334  139.3245  168.1687 C.ar    1  UNL1        0.0204
     11 C         142.4530  139.2408  169.6554 C.ar    1  UNL1        0.0016
     12 C         141.5894  140.2420  170.3637 C.ar    1  UNL1        0.0014
     13 C         140.9062  141.3270  169.5853 C.ar    1  UNL1        0.0161
     14 C         141.0866  141.4108  168.0986 C.ar    1  UNL1        0.0662
     15 N         140.3212  142.5627  167.5177 N.pl3   1  UNL1       -0.3113
     16 H         139.8110  143.1048  168.1620 H       1  UNL1        0.1523
     17 C         142.2806  140.8315  163.4395 C.2     1  UNL1       -0.0061
     18 C         141.4623  139.9330  162.5602 C.2     1  UNL1       -0.0132
     19 C         141.9565  139.5709  161.1910 C.3     1  UNL1        0.0796
     20 C         141.1383  138.6725  160.3116 C.3     1  UNL1        0.0222
     21 N         143.2689  140.1073  160.7011 N.3     1  UNL1       -0.2688
     22 C         143.7630  139.7453  159.3320 C.3     1  UNL1        0.0899
     23 C         144.0872  141.0058  161.5805 C.3     1  UNL1        0.0771
     24 C         143.5930  141.3679  162.9497 C.3     1  UNL1        0.0449
     25 C         139.7535  146.2635  161.8005 C.3     1  UNL1        0.0050
     26 C         139.5554  144.7921  162.0139 C.3     1  UNL1        0.0264
@<TRIPOS>BOND
     1    25    26    1
     2    26     1    1
     3     1     2   ar
     4     2     3   ar
     5     3     4   ar
     6     4     5   ar
     7     5     6   ar
     8     5     7    1
     9     7    17    1
    10    17    18    2
    11    18    19    1
    12    19    20    1
    13    19    21    1
    14    21    22    1
    15    21    23    1
    16    23    24    1
    17     7     8    2
    18     8     9    1
    19     9    10   ar
    20    10    11   ar
    21    11    12   ar
    22    12    13   ar
    23    13    14   ar
    24    14    15    1
    25     6     1   ar
    26    24    17    1
    27    14     9   ar
    28    15     4    1
    29    15    16    1
@<TRIPOS>MOLECULE
*****
 26 29 0 0 0
SMALL
GASTEIGER

@<TRIPOS>ATOM
      1 C         138.9916  138.7488  163.9840 C.ar    1  UNL1       -0.0221
      2 C         138.2660  138.4498  162.7057 C.ar    1  UNL1       -0.0030
      3 C         138.3459  139.4096  161.5558 C.ar    1  UNL1        0.0143
      4 C         139.1515  140.6683  161.6841 C.ar    1  UNL1        0.0497
      5 C         139.8772  140.9674  162.9624 C.ar    1  UNL1        0.0304
      6 C         139.7973  140.0076  164.1123 C.ar    1  UNL1       -0.0015
      7 C         140.7293  142.1553  163.2982 C.2     1  UNL1        0.0783
      8 N         141.0663  143.3375  162.4387 N.2     1  UNL1       -0.2444
      9 C         140.6343  143.6239  161.0311 C.ar    1  UNL1        0.0946
     10 C         141.1983  144.9235  160.5384 C.ar    1  UNL1        0.0204
     11 C         140.8868  145.3980  159.1500 C.ar    1  UNL1        0.0016
     12 C         140.0111  144.5729  158.2542 C.ar    1  UNL1        0.0014
     13 C         139.4471  143.2732  158.7469 C.ar    1  UNL1        0.0161
     14 C         139.7587  142.7988  160.1353 C.ar    1  UNL1        0.0662
     15 N         139.0988  141.4834  160.4259 N.pl3   1  UNL1       -0.3113
     16 H         138.5598  141.1050  159.6941 H       1  UNL1        0.1523
     17 C         141.3230  142.1617  164.6757 C.2     1  UNL1       -0.0061
     18 C         140.5020  142.6209  165.8441 C.2     1  UNL1       -0.0132
     19 C         141.0958  142.6274  167.2216 C.3     1  UNL1        0.0796
     20 C         140.2748  143.0866  168.3899 C.3     1  UNL1        0.0222
     21 N         142.5104  142.1747  167.4307 N.3     1  UNL1       -0.2688
     22 C         143.1041  142.1811  168.8081 C.3     1  UNL1        0.0899
     23 C         143.3315  141.7155  166.2623 C.3     1  UNL1        0.0771
     24 C         142.7377  141.7090  164.8848 C.3     1  UNL1        0.0449
     25 C         138.0539  138.1111  166.3215 C.3     1  UNL1        0.0050
     26 C         138.9117  137.7890  165.1339 C.3     1  UNL1        0.0264
@<TRIPOS>BOND
     1    25    26    1
     2    26     1    1
     3     1     2   ar
     4     2     3   ar
     5     3     4   ar
     6     4     5   ar
     7     5     6   ar
     8     5     7    1
     9     7    17    1
    10    17    18    2
    11    18    19    1
    12    19    20    1
    13    19    21    1
    14    21    22    1
    15    21    23    1
    16    23    24    1
    17     7     8    2
    18     8     9    1
    19     9    10   ar
    20    10    11   ar
    21    11    12   ar
    22    12    13   ar
    23    13    14   ar
    24    14    15    1
    25     6     1   ar
    26    24    17    1
    27    14     9   ar
    28    15     4    1
    29    15    16    1
