@<TRIPOS>MOLECULE
*****
 33 37 0 0 0
SMALL
GASTEIGER

@<TRIPOS>ATOM
      1 N         137.5740  140.0105  160.3259 N.pl3   1  UNL1       -0.2803
      2 H         136.7248  139.7306  159.9139 H       1  UNL1        0.1551
      3 C         138.4354  141.0339  159.6472 C.ar    1  UNL1        0.2208
      4 N         137.9880  141.6538  158.3567 N.ar    1  UNL1       -0.2111
      5 C         138.8494  142.6772  157.6780 C.ar    1  UNL1        0.1147
      6 C         140.1582  143.0807  158.2899 C.ar    1  UNL1        0.0946
      7 CL        141.0196  144.1041  157.6112 Cl      1  UNL1       -0.0790
      8 C         140.6055  142.4608  159.5805 C.ar    1  UNL1        0.0992
      9 N         139.7441  141.4374  160.2591 N.ar    1  UNL1       -0.2126
     10 C         141.9143  142.8643  160.1924 C.ar    1  UNL1        0.0572
     11 C         143.2764  142.5305  159.6603 C.ar    1  UNL1        0.1235
     12 N         144.2946  143.1324  160.5829 N.ar    1  UNL1       -0.1634
     13 N         143.5617  143.8381  161.6851 N.ar    1  UNL1       -0.2281
     14 C         144.0439  144.6101  162.8774 C.ar    1  UNL1        0.1004
     15 C         143.0549  145.2164  163.8282 C.ar    1  UNL1        0.0207
     16 C         141.5837  145.0507  163.5869 C.ar    1  UNL1        0.0031
     17 C         141.1016  144.2787  162.3947 C.ar    1  UNL1        0.0193
     18 C         142.0905  143.6724  161.4438 C.ar    1  UNL1        0.0858
     19 N         138.5157  139.1414  163.9897 N.ar    1  UNL1       -0.2555
     20 N         138.8277  137.8486  163.2957 N.ar    1  UNL1       -0.1667
     21 C         138.5129  138.0168  161.8388 C.ar    1  UNL1        0.1359
     22 C         138.0063  139.4136  161.6323 C.ar    1  UNL1        0.0850
     23 C         138.0081  140.1086  162.9617 C.ar    1  UNL1        0.0708
     24 C         137.5779  141.5224  163.2180 C.3     1  UNL1        0.0531
     25 C         140.2251  141.2207  170.3146 C.3     1  UNL1        0.0948
     26 C         139.1815  140.2490  169.8489 C.2     1  UNL1        0.2261
     27 O         138.3044  139.5543  170.8479 O.2     1  UNL1       -0.2749
     28 N         139.0150  139.9721  168.3840 N.am    1  UNL1       -0.2794
     29 C         139.8922  140.6669  167.3851 C.3     1  UNL1        0.0954
     30 C         139.7257  140.3899  165.9202 C.3     1  UNL1        0.0459
     31 C         138.6822  139.4183  165.4545 C.3     1  UNL1        0.1083
     32 C         137.8051  138.7236  166.4535 C.3     1  UNL1        0.0459
     33 C         137.9715  139.0004  167.9183 C.3     1  UNL1        0.0954
@<TRIPOS>BOND
     1    25    26    1
     2    26    27    2
     3    26    28   am
     4    28    29    1
     5    29    30    1
     6    30    31    1
     7    31    19    1
     8    19    20   ar
     9    20    21   ar
    10    21    22   ar
    11    22     1    1
    12     1     3    1
    13     3     4   ar
    14     4     5   ar
    15     5     6   ar
    16     6     7    1
    17     6     8   ar
    18     8    10    1
    19    10    11   ar
    20    11    12   ar
    21    12    13   ar
    22    13    14   ar
    23    14    15   ar
    24    15    16   ar
    25    16    17   ar
    26    17    18   ar
    27     8     9   ar
    28    22    23   ar
    29    23    24    1
    30    31    32    1
    31    32    33    1
    32    33    28    1
    33    23    19   ar
    34     9     3   ar
    35    18    10   ar
    36    18    13   ar
    37     1     2    1
@<TRIPOS>MOLECULE
*****
 33 37 0 0 0
SMALL
GASTEIGER

@<TRIPOS>ATOM
      1 N         141.3935  145.3867  159.7263 N.pl3   1  UNL1       -0.2803
      2 H         142.3247  145.7059  159.7170 H       1  UNL1        0.1551
      3 C         140.6529  145.1970  158.4357 C.ar    1  UNL1        0.2208
      4 N         139.8024  143.9785  158.2312 N.ar    1  UNL1       -0.2111
      5 C         139.0618  143.7888  156.9406 C.ar    1  UNL1        0.1147
      6 C         139.1717  144.8176  155.8546 C.ar    1  UNL1        0.0946
      7 CL        138.4311  144.6279  154.5640 Cl      1  UNL1       -0.0790
      8 C         140.0223  146.0362  156.0592 C.ar    1  UNL1        0.0992
      9 N         140.7628  146.2258  157.3497 N.ar    1  UNL1       -0.2126
     10 C         140.1322  147.0650  154.9731 C.ar    1  UNL1        0.0572
     11 C         140.8179  146.8822  153.6516 C.ar    1  UNL1        0.1235
     12 N         140.6851  148.1615  152.8797 N.ar    1  UNL1       -0.1634
     13 N         139.9175  149.1350  153.7242 N.ar    1  UNL1       -0.2281
     14 C         139.4855  150.5508  153.4822 C.ar    1  UNL1        0.1004
     15 C         138.7118  151.2890  154.5340 C.ar    1  UNL1        0.0207
     16 C         138.3701  150.6114  155.8279 C.ar    1  UNL1        0.0031
     17 C         138.8020  149.1955  156.0699 C.ar    1  UNL1        0.0193
     18 C         139.5757  148.4573  155.0180 C.ar    1  UNL1        0.0858
     19 N         139.9066  143.9224  162.9990 N.ar    1  UNL1       -0.2555
     20 N         139.4364  145.3447  163.0779 N.ar    1  UNL1       -0.1667
     21 C         139.9362  146.0663  161.8615 C.ar    1  UNL1        0.1359
     22 C         140.7153  145.0900  161.0308 C.ar    1  UNL1        0.0850
     23 C         140.6969  143.7650  161.7339 C.ar    1  UNL1        0.0708
     24 C         141.3536  142.5041  161.2557 C.3     1  UNL1        0.0531
     25 C         137.8620  138.5089  166.7090 C.3     1  UNL1        0.0948
     26 C         138.8171  139.6186  167.0351 C.2     1  UNL1        0.2261
     27 O         139.4999  139.6523  168.3703 O.2     1  UNL1       -0.2749
     28 N         139.0895  140.6946  166.0261 N.am    1  UNL1       -0.2794
     29 C         138.4067  140.6608  164.6909 C.3     1  UNL1        0.0954
     30 C         138.6791  141.7368  163.6819 C.3     1  UNL1        0.0459
     31 C         139.6342  142.8464  164.0080 C.3     1  UNL1        0.1083
     32 C         140.3170  142.8801  165.3431 C.3     1  UNL1        0.0459
     33 C         140.0447  141.8042  166.3522 C.3     1  UNL1        0.0954
@<TRIPOS>BOND
     1    25    26    1
     2    26    27    2
     3    26    28   am
     4    28    29    1
     5    29    30    1
     6    30    31    1
     7    31    19    1
     8    19    20   ar
     9    20    21   ar
    10    21    22   ar
    11    22     1    1
    12     1     3    1
    13     3     4   ar
    14     4     5   ar
    15     5     6   ar
    16     6     7    1
    17     6     8   ar
    18     8    10    1
    19    10    11   ar
    20    11    12   ar
    21    12    13   ar
    22    13    14   ar
    23    14    15   ar
    24    15    16   ar
    25    16    17   ar
    26    17    18   ar
    27     8     9   ar
    28    22    23   ar
    29    23    24    1
    30    31    32    1
    31    32    33    1
    32    33    28    1
    33    23    19   ar
    34     9     3   ar
    35    18    10   ar
    36    18    13   ar
    37     1     2    1
@<TRIPOS>MOLECULE
*****
 33 37 0 0 0
SMALL
GASTEIGER

@<TRIPOS>ATOM
      1 N         143.5625  137.7316  161.9986 N.pl3   1  UNL1       -0.2803
      2 H         144.2704  137.0680  162.1651 H       1  UNL1        0.1551
      3 C         143.3866  138.3124  160.6269 C.ar    1  UNL1        0.2208
      4 N         143.9587  139.6611  160.3045 N.ar    1  UNL1       -0.2111
      5 C         143.7828  140.2419  158.9327 C.ar    1  UNL1        0.1147
      6 C         143.0349  139.4741  157.8834 C.ar    1  UNL1        0.0946
      7 CL        142.8590  140.0549  156.5116 Cl      1  UNL1       -0.0790
      8 C         142.4628  138.1254  158.2059 C.ar    1  UNL1        0.0992
      9 N         142.6387  137.5446  159.5776 N.ar    1  UNL1       -0.2126
     10 C         141.7148  137.3576  157.1565 C.ar    1  UNL1        0.0572
     11 C         140.3499  137.6864  156.6285 C.ar    1  UNL1        0.1235
     12 N         139.9921  136.6582  155.5967 N.ar    1  UNL1       -0.1634
     13 N         141.1358  135.6939  155.4869 N.ar    1  UNL1       -0.2281
     14 C         141.3454  134.4782  154.6337 C.ar    1  UNL1        0.1004
     15 C         142.6196  133.6947  154.7446 C.ar    1  UNL1        0.0207
     16 C         143.6844  134.1270  155.7087 C.ar    1  UNL1        0.0031
     17 C         143.4749  135.3427  156.5619 C.ar    1  UNL1        0.0193
     18 C         142.2006  136.1262  156.4510 C.ar    1  UNL1        0.0858
     19 N         141.8038  139.2878  165.0891 N.ar    1  UNL1       -0.2555
     20 N         140.7379  138.3602  164.5855 N.ar    1  UNL1       -0.1667
     21 C         141.2670  137.6643  163.3666 C.ar    1  UNL1        0.1359
     22 C         142.6599  138.1619  163.1167 C.ar    1  UNL1        0.0850
     23 C         142.9916  139.1653  164.1813 C.ar    1  UNL1        0.0708
     24 C         144.2842  139.9145  164.3147 C.3     1  UNL1        0.0531
     25 C         140.4421  144.0246  169.8806 C.3     1  UNL1        0.0948
     26 C         141.3888  142.8612  169.8911 C.2     1  UNL1        0.2261
     27 O         142.2317  142.5910  171.1021 O.2     1  UNL1       -0.2749
     28 N         141.4926  141.9678  168.6905 N.am    1  UNL1       -0.2794
     29 C         140.6496  142.2380  167.4796 C.3     1  UNL1        0.0954
     30 C         140.7533  141.3446  166.2791 C.3     1  UNL1        0.0459
     31 C         141.7001  140.1812  166.2896 C.3     1  UNL1        0.1083
     32 C         142.5430  139.9111  167.5005 C.3     1  UNL1        0.0459
     33 C         142.4393  140.8043  168.7010 C.3     1  UNL1        0.0954
@<TRIPOS>BOND
     1    25    26    1
     2    26    27    2
     3    26    28   am
     4    28    29    1
     5    29    30    1
     6    30    31    1
     7    31    19    1
     8    19    20   ar
     9    20    21   ar
    10    21    22   ar
    11    22     1    1
    12     1     3    1
    13     3     4   ar
    14     4     5   ar
    15     5     6   ar
    16     6     7    1
    17     6     8   ar
    18     8    10    1
    19    10    11   ar
    20    11    12   ar
    21    12    13   ar
    22    13    14   ar
    23    14    15   ar
    24    15    16   ar
    25    16    17   ar
    26    17    18   ar
    27     8     9   ar
    28    22    23   ar
    29    23    24    1
    30    31    32    1
    31    32    33    1
    32    33    28    1
    33    23    19   ar
    34     9     3   ar
    35    18    10   ar
    36    18    13   ar
    37     1     2    1
@<TRIPOS>MOLECULE
*****
 33 37 0 0 0
SMALL
GASTEIGER

@<TRIPOS>ATOM
      1 N         139.0432  138.1851  160.4118 N.pl3   1  UNL1       -0.2803
      2 H         138.5239  137.4086  160.1010 H       1  UNL1        0.1551
      3 C         140.2618  138.6240  159.6553 C.ar    1  UNL1        0.2208
      4 N         140.4867  138.1438  158.2521 N.ar    1  UNL1       -0.2111
      5 C         141.7053  138.5827  157.4956 C.ar    1  UNL1        0.1147
      6 C         142.6990  139.5016  158.1422 C.ar    1  UNL1        0.0946
      7 CL        143.9176  139.9404  157.3856 Cl      1  UNL1       -0.0790
      8 C         142.4741  139.9818  159.5454 C.ar    1  UNL1        0.0992
      9 N         141.2555  139.5429  160.3019 N.ar    1  UNL1       -0.2126
     10 C         143.4678  140.9007  160.1921 C.ar    1  UNL1        0.0572
     11 C         144.0075  142.1704  159.6034 C.ar    1  UNL1        0.1235
     12 N         144.9695  142.7656  160.5884 N.ar    1  UNL1       -0.1634
     13 N         145.0243  141.8638  161.7858 N.ar    1  UNL1       -0.2281
     14 C         145.7994  141.9433  163.0675 C.ar    1  UNL1        0.1004
     15 C         145.6464  140.8702  164.1043 C.ar    1  UNL1        0.0207
     16 C         144.7182  139.7176  163.8593 C.ar    1  UNL1        0.0031
     17 C         143.9431  139.6381  162.5776 C.ar    1  UNL1        0.0193
     18 C         144.0962  140.7112  161.5409 C.ar    1  UNL1        0.0858
     19 N         138.4595  139.6925  163.9407 N.ar    1  UNL1       -0.2555
     20 N         137.4558  140.4570  163.1293 N.ar    1  UNL1       -0.1667
     21 C         137.5523  139.9853  161.7086 C.ar    1  UNL1        0.1359
     22 C         138.6156  138.9294  161.6420 C.ar    1  UNL1        0.0850
     23 C         139.1763  138.7484  163.0215 C.ar    1  UNL1        0.0708
     24 C         140.2629  137.7914  163.4130 C.3     1  UNL1        0.0531
     25 C         140.4475  141.2948  170.3227 C.3     1  UNL1        0.0948
     26 C         139.4356  140.3037  169.8292 C.2     1  UNL1        0.2261
     27 O         138.6677  139.4653  170.8077 O.2     1  UNL1       -0.2749
     28 N         139.1915  140.1508  168.3570 N.am    1  UNL1       -0.2794
     29 C         139.9595  140.9892  167.3785 C.3     1  UNL1        0.0954
     30 C         139.7154  140.8364  165.9064 C.3     1  UNL1        0.0459
     31 C         138.7035  139.8453  165.4128 C.3     1  UNL1        0.1083
     32 C         137.9356  139.0070  166.3913 C.3     1  UNL1        0.0459
     33 C         138.1796  139.1597  167.8634 C.3     1  UNL1        0.0954
@<TRIPOS>BOND
     1    25    26    1
     2    26    27    2
     3    26    28   am
     4    28    29    1
     5    29    30    1
     6    30    31    1
     7    31    19    1
     8    19    20   ar
     9    20    21   ar
    10    21    22   ar
    11    22     1    1
    12     1     3    1
    13     3     4   ar
    14     4     5   ar
    15     5     6   ar
    16     6     7    1
    17     6     8   ar
    18     8    10    1
    19    10    11   ar
    20    11    12   ar
    21    12    13   ar
    22    13    14   ar
    23    14    15   ar
    24    15    16   ar
    25    16    17   ar
    26    17    18   ar
    27     8     9   ar
    28    22    23   ar
    29    23    24    1
    30    31    32    1
    31    32    33    1
    32    33    28    1
    33    23    19   ar
    34     9     3   ar
    35    18    10   ar
    36    18    13   ar
    37     1     2    1
@<TRIPOS>MOLECULE
*****
 33 37 0 0 0
SMALL
GASTEIGER

@<TRIPOS>ATOM
      1 N         138.5850  137.7894  162.3367 N.pl3   1  UNL1       -0.2803
      2 H         137.8454  137.1443  162.4150 H       1  UNL1        0.1551
      3 C         138.7942  138.5384  161.0540 C.ar    1  UNL1        0.2208
      4 N         137.7400  139.4820  160.5560 N.ar    1  UNL1       -0.2111
      5 C         137.9492  140.2310  159.2733 C.ar    1  UNL1        0.1147
      6 C         139.2126  140.0363  158.4886 C.ar    1  UNL1        0.0946
      7 CL        139.4218  140.7852  157.2059 Cl      1  UNL1       -0.0790
      8 C         140.2669  139.0925  158.9866 C.ar    1  UNL1        0.0992
      9 N         140.0577  138.3436  160.2693 N.ar    1  UNL1       -0.2126
     10 C         141.5304  138.8978  158.2019 C.ar    1  UNL1        0.0572
     11 C         142.8166  139.6430  158.4026 C.ar    1  UNL1        0.1235
     12 N         143.8106  139.1294  157.4035 N.ar    1  UNL1       -0.1634
     13 N         143.1386  138.0668  156.5853 N.ar    1  UNL1       -0.2281
     14 C         143.6279  137.2111  155.4546 C.ar    1  UNL1        0.1004
     15 C         142.7080  136.2123  154.8175 C.ar    1  UNL1        0.0207
     16 C         141.2987  136.0692  155.3110 C.ar    1  UNL1        0.0031
     17 C         140.8094  136.9249  156.4416 C.ar    1  UNL1        0.0193
     18 C         141.7294  137.9237  157.0787 C.ar    1  UNL1        0.0858
     19 N         140.4766  138.9458  165.5226 N.ar    1  UNL1       -0.2555
     20 N         141.3527  137.8204  165.0578 N.ar    1  UNL1       -0.1667
     21 C         140.7507  137.2502  163.8077 C.ar    1  UNL1        0.1359
     22 C         139.5026  138.0233  163.5000 C.ar    1  UNL1        0.0850
     23 C         139.3332  139.0712  164.5599 C.ar    1  UNL1        0.0708
     24 C         138.2166  140.0692  164.6424 C.3     1  UNL1        0.0531
     25 C         142.6483  143.1491  170.5092 C.3     1  UNL1        0.0948
     26 C         141.3864  142.3485  170.3800 C.2     1  UNL1        0.2261
     27 O         140.3520  142.3986  171.4651 O.2     1  UNL1       -0.2749
     28 N         141.1589  141.4978  169.1656 N.am    1  UNL1       -0.2794
     29 C         142.1934  141.4478  168.0805 C.3     1  UNL1        0.0954
     30 C         141.9659  140.5971  166.8661 C.3     1  UNL1        0.0459
     31 C         140.7041  139.7965  166.7369 C.3     1  UNL1        0.1083
     32 C         139.6697  139.8466  167.8220 C.3     1  UNL1        0.0459
     33 C         139.8970  140.6972  169.0364 C.3     1  UNL1        0.0954
@<TRIPOS>BOND
     1    25    26    1
     2    26    27    2
     3    26    28   am
     4    28    29    1
     5    29    30    1
     6    30    31    1
     7    31    19    1
     8    19    20   ar
     9    20    21   ar
    10    21    22   ar
    11    22     1    1
    12     1     3    1
    13     3     4   ar
    14     4     5   ar
    15     5     6   ar
    16     6     7    1
    17     6     8   ar
    18     8    10    1
    19    10    11   ar
    20    11    12   ar
    21    12    13   ar
    22    13    14   ar
    23    14    15   ar
    24    15    16   ar
    25    16    17   ar
    26    17    18   ar
    27     8     9   ar
    28    22    23   ar
    29    23    24    1
    30    31    32    1
    31    32    33    1
    32    33    28    1
    33    23    19   ar
    34     9     3   ar
    35    18    10   ar
    36    18    13   ar
    37     1     2    1
@<TRIPOS>MOLECULE
*****
 33 37 0 0 0
SMALL
GASTEIGER

@<TRIPOS>ATOM
      1 N         144.0653  143.1420  163.1086 N.pl3   1  UNL1       -0.2803
      2 H         144.3784  143.9576  163.5624 H       1  UNL1        0.1551
      3 C         143.9364  141.8594  163.8756 C.ar    1  UNL1        0.2208
      4 N         144.9350  140.7591  163.6703 N.ar    1  UNL1       -0.2111
      5 C         144.8061  139.4766  164.4374 C.ar    1  UNL1        0.1147
      6 C         143.6787  139.2943  165.4098 C.ar    1  UNL1        0.0946
      7 CL        143.5498  138.0118  166.1769 Cl      1  UNL1       -0.0790
      8 C         142.6801  140.3947  165.6152 C.ar    1  UNL1        0.0992
      9 N         142.8090  141.6771  164.8481 N.ar    1  UNL1       -0.2126
     10 C         141.5526  140.2124  166.5876 C.ar    1  UNL1        0.0572
     11 C         140.1565  139.7815  166.2482 C.ar    1  UNL1        0.1235
     12 N         139.3644  139.7319  167.5210 N.ar    1  UNL1       -0.1634
     13 N         140.2710  140.1320  168.6471 N.ar    1  UNL1       -0.2281
     14 C         140.0398  140.2644  170.1232 C.ar    1  UNL1        0.1004
     15 C         141.1609  140.6937  171.0224 C.ar    1  UNL1        0.0207
     16 C         142.5133  140.9907  170.4455 C.ar    1  UNL1        0.0031
     17 C         142.7445  140.8584  168.9694 C.ar    1  UNL1        0.0193
     18 C         141.6234  140.4290  168.0702 C.ar    1  UNL1        0.0858
     19 N         142.5827  143.6678  159.5602 N.ar    1  UNL1       -0.2555
     20 N         143.7801  142.8187  159.2512 N.ar    1  UNL1       -0.1667
     21 C         144.4812  142.5184  160.5428 C.ar    1  UNL1        0.1359
     22 C         143.7171  143.1819  161.6501 C.ar    1  UNL1        0.0850
     23 C         142.5438  143.8922  161.0428 C.ar    1  UNL1        0.0708
     24 C         141.5127  144.6874  161.7873 C.3     1  UNL1        0.0531
     25 C         138.7803  147.1936  155.0480 C.3     1  UNL1        0.0948
     26 C         138.6409  145.7931  155.5670 C.2     1  UNL1        0.2261
     27 O         137.5162  144.9240  155.0877 O.2     1  UNL1       -0.2749
     28 N         139.6264  145.2618  156.5653 N.am    1  UNL1       -0.2794
     29 C         140.7511  146.1309  157.0445 C.3     1  UNL1        0.0954
     30 C         141.7366  145.5995  158.0429 C.3     1  UNL1        0.0459
     31 C         141.5973  144.1991  158.5619 C.3     1  UNL1        0.1083
     32 C         140.4726  143.3301  158.0827 C.3     1  UNL1        0.0459
     33 C         139.4871  143.8613  157.0844 C.3     1  UNL1        0.0954
@<TRIPOS>BOND
     1    25    26    1
     2    26    27    2
     3    26    28   am
     4    28    29    1
     5    29    30    1
     6    30    31    1
     7    31    19    1
     8    19    20   ar
     9    20    21   ar
    10    21    22   ar
    11    22     1    1
    12     1     3    1
    13     3     4   ar
    14     4     5   ar
    15     5     6   ar
    16     6     7    1
    17     6     8   ar
    18     8    10    1
    19    10    11   ar
    20    11    12   ar
    21    12    13   ar
    22    13    14   ar
    23    14    15   ar
    24    15    16   ar
    25    16    17   ar
    26    17    18   ar
    27     8     9   ar
    28    22    23   ar
    29    23    24    1
    30    31    32    1
    31    32    33    1
    32    33    28    1
    33    23    19   ar
    34     9     3   ar
    35    18    10   ar
    36    18    13   ar
    37     1     2    1
@<TRIPOS>MOLECULE
*****
 33 37 0 0 0
SMALL
GASTEIGER

@<TRIPOS>ATOM
      1 N         137.6859  139.5673  160.0769 N.pl3   1  UNL1       -0.2803
      2 H         136.7105  139.5470  159.9450 H       1  UNL1        0.1551
      3 C         138.5827  140.0388  158.9709 C.ar    1  UNL1        0.2208
      4 N         139.1402  139.0543  157.9861 N.ar    1  UNL1       -0.2111
      5 C         140.0370  139.5259  156.8800 C.ar    1  UNL1        0.1147
      6 C         140.3764  140.9820  156.7588 C.ar    1  UNL1        0.0946
      7 CL        141.2732  141.4536  155.6528 Cl      1  UNL1       -0.0790
      8 C         139.8188  141.9666  157.7438 C.ar    1  UNL1        0.0992
      9 N         138.9221  141.4949  158.8497 N.ar    1  UNL1       -0.2126
     10 C         140.1582  143.4226  157.6226 C.ar    1  UNL1        0.0572
     11 C         141.2358  144.1426  158.3777 C.ar    1  UNL1        0.1235
     12 N         141.2231  145.5793  157.9468 N.ar    1  UNL1       -0.1634
     13 N         140.1375  145.7473  156.9253 N.ar    1  UNL1       -0.2281
     14 C         139.6633  146.9417  156.1518 C.ar    1  UNL1        0.1004
     15 C         138.5309  146.8032  155.1779 C.ar    1  UNL1        0.0207
     16 C         137.8728  145.4703  154.9775 C.ar    1  UNL1        0.0031
     17 C         138.3470  144.2759  155.7510 C.ar    1  UNL1        0.0193
     18 C         139.4793  144.4144  156.7249 C.ar    1  UNL1        0.0858
     19 N         138.8680  139.0380  163.7359 N.ar    1  UNL1       -0.2555
     20 N         139.4960  137.8582  163.0548 N.ar    1  UNL1       -0.1667
     21 C         139.1297  137.9129  161.6013 C.ar    1  UNL1        0.1359
     22 C         138.2752  139.1265  161.3840 C.ar    1  UNL1        0.0850
     23 C         138.1135  139.8218  162.7033 C.ar    1  UNL1        0.0708
     24 C         137.3342  141.0800  162.9471 C.3     1  UNL1        0.0531
     25 C         140.3594  141.3337  170.0411 C.3     1  UNL1        0.0948
     26 C         139.2985  140.3852  169.5668 C.2     1  UNL1        0.2261
     27 O         138.3452  139.7736  170.5503 O.2     1  UNL1       -0.2749
     28 N         139.1909  140.0484  168.1091 N.am    1  UNL1       -0.2794
     29 C         140.1442  140.6601  167.1257 C.3     1  UNL1        0.0954
     30 C         140.0365  140.3232  165.6679 C.3     1  UNL1        0.0459
     31 C         138.9756  139.3748  165.1936 C.3     1  UNL1        0.1083
     32 C         138.0224  138.7632  166.1770 C.3     1  UNL1        0.0459
     33 C         138.1299  139.1000  167.6348 C.3     1  UNL1        0.0954
@<TRIPOS>BOND
     1    25    26    1
     2    26    27    2
     3    26    28   am
     4    28    29    1
     5    29    30    1
     6    30    31    1
     7    31    19    1
     8    19    20   ar
     9    20    21   ar
    10    21    22   ar
    11    22     1    1
    12     1     3    1
    13     3     4   ar
    14     4     5   ar
    15     5     6   ar
    16     6     7    1
    17     6     8   ar
    18     8    10    1
    19    10    11   ar
    20    11    12   ar
    21    12    13   ar
    22    13    14   ar
    23    14    15   ar
    24    15    16   ar
    25    16    17   ar
    26    17    18   ar
    27     8     9   ar
    28    22    23   ar
    29    23    24    1
    30    31    32    1
    31    32    33    1
    32    33    28    1
    33    23    19   ar
    34     9     3   ar
    35    18    10   ar
    36    18    13   ar
    37     1     2    1
@<TRIPOS>MOLECULE
*****
 33 37 0 0 0
SMALL
GASTEIGER

@<TRIPOS>ATOM
      1 N         142.9768  144.7464  161.9712 N.pl3   1  UNL1       -0.2803
      2 H         143.5316  145.5511  161.8533 H       1  UNL1        0.1551
      3 C         141.9633  144.3750  160.9296 C.ar    1  UNL1        0.2208
      4 N         141.4995  145.3984  159.9359 N.ar    1  UNL1       -0.2111
      5 C         140.4861  145.0270  158.8943 C.ar    1  UNL1        0.1147
      6 C         139.9364  143.6322  158.8464 C.ar    1  UNL1        0.0946
      7 CL        138.9229  143.2608  157.8048 Cl      1  UNL1       -0.0790
      8 C         140.4002  142.6087  159.8402 C.ar    1  UNL1        0.0992
      9 N         141.4137  142.9802  160.8817 N.ar    1  UNL1       -0.2126
     10 C         139.8506  141.2138  159.7923 C.ar    1  UNL1        0.0572
     11 C         139.6149  140.4011  158.5538 C.ar    1  UNL1        0.1235
     12 N         139.0587  139.0718  158.9706 N.ar    1  UNL1       -0.1634
     13 N         138.9507  139.0630  160.4667 N.ar    1  UNL1       -0.2281
     14 C         138.4700  138.0206  161.4322 C.ar    1  UNL1        0.1004
     15 C         138.4786  138.3021  162.9055 C.ar    1  UNL1        0.0207
     16 C         138.9680  139.6259  163.4133 C.ar    1  UNL1        0.0031
     17 C         139.4488  140.6683  162.4479 C.ar    1  UNL1        0.0193
     18 C         139.4401  140.3869  160.9746 C.ar    1  UNL1        0.0858
     19 N         142.7114  142.7584  165.2942 N.ar    1  UNL1       -0.2555
     20 N         144.0969  142.3949  164.8488 N.ar    1  UNL1       -0.1667
     21 C         144.3650  143.0954  163.5498 C.ar    1  UNL1        0.1359
     22 C         143.1451  143.8918  163.1923 C.ar    1  UNL1        0.0850
     23 C         142.1232  143.6835  164.2705 C.ar    1  UNL1        0.0708
     24 C         140.7536  144.2932  164.3167 C.3     1  UNL1        0.0531
     25 C         138.6534  140.1888  170.2115 C.3     1  UNL1        0.0948
     26 C         139.9987  140.8473  170.2931 C.2     1  UNL1        0.2261
     27 O         140.6658  141.0279  171.6244 O.2     1  UNL1       -0.2749
     28 N         140.6769  141.3251  169.0433 N.am    1  UNL1       -0.2794
     29 C         140.0097  141.1444  167.7121 C.3     1  UNL1        0.0954
     30 C         140.6880  141.6222  166.4623 C.3     1  UNL1        0.0459
     31 C         142.0332  142.2806  166.5439 C.3     1  UNL1        0.1083
     32 C         142.7003  142.4613  167.8751 C.3     1  UNL1        0.0459
     33 C         142.0222  141.9835  169.1249 C.3     1  UNL1        0.0954
@<TRIPOS>BOND
     1    25    26    1
     2    26    27    2
     3    26    28   am
     4    28    29    1
     5    29    30    1
     6    30    31    1
     7    31    19    1
     8    19    20   ar
     9    20    21   ar
    10    21    22   ar
    11    22     1    1
    12     1     3    1
    13     3     4   ar
    14     4     5   ar
    15     5     6   ar
    16     6     7    1
    17     6     8   ar
    18     8    10    1
    19    10    11   ar
    20    11    12   ar
    21    12    13   ar
    22    13    14   ar
    23    14    15   ar
    24    15    16   ar
    25    16    17   ar
    26    17    18   ar
    27     8     9   ar
    28    22    23   ar
    29    23    24    1
    30    31    32    1
    31    32    33    1
    32    33    28    1
    33    23    19   ar
    34     9     3   ar
    35    18    10   ar
    36    18    13   ar
    37     1     2    1
@<TRIPOS>MOLECULE
*****
 33 37 0 0 0
SMALL
GASTEIGER

@<TRIPOS>ATOM
      1 N         137.3676  139.6269  161.8375 N.pl3   1  UNL1       -0.2803
      2 H         136.4706  139.2230  161.7987 H       1  UNL1        0.1551
      3 C         137.8495  140.4929  160.7116 C.ar    1  UNL1        0.2208
      4 N         138.4003  141.8583  160.9984 N.ar    1  UNL1       -0.2111
      5 C         138.8822  142.7243  159.8725 C.ar    1  UNL1        0.1147
      6 C         138.8133  142.2250  158.4597 C.ar    1  UNL1        0.0946
      7 CL        139.2952  143.0910  157.3338 Cl      1  UNL1       -0.0790
      8 C         138.2624  140.8595  158.1729 C.ar    1  UNL1        0.0992
      9 N         137.7806  139.9935  159.2988 N.ar    1  UNL1       -0.2126
     10 C         138.1935  140.3601  156.7601 C.ar    1  UNL1        0.0572
     11 C         139.2644  139.5927  156.0430 C.ar    1  UNL1        0.1235
     12 N         138.7743  139.2988  154.6562 N.ar    1  UNL1       -0.1634
     13 N         137.4005  139.8846  154.5161 N.ar    1  UNL1       -0.2281
     14 C         136.4301  139.9055  153.3726 C.ar    1  UNL1        0.1004
     15 C         135.1007  140.5823  153.5293 C.ar    1  UNL1        0.0207
     16 C         134.7418  141.2383  154.8297 C.ar    1  UNL1        0.0031
     17 C         135.7122  141.2174  155.9732 C.ar    1  UNL1        0.0193
     18 C         137.0416  140.5405  155.8165 C.ar    1  UNL1        0.0858
     19 N         139.4023  139.6460  165.1429 N.ar    1  UNL1       -0.2555
     20 N         139.8254  138.3347  164.5496 N.ar    1  UNL1       -0.1667
     21 C         139.1147  138.1680  163.2392 C.ar    1  UNL1        0.1359
     22 C         138.2523  139.3762  163.0226 C.ar    1  UNL1        0.0850
     23 C         138.4302  140.2896  164.1992 C.ar    1  UNL1        0.0708
     24 C         137.7545  141.6140  164.3971 C.3     1  UNL1        0.0531
     25 C         142.3723  142.9352  170.3974 C.3     1  UNL1        0.0948
     26 C         141.2708  141.9173  170.3726 C.2     1  UNL1        0.2261
     27 O         140.6365  141.4672  171.6552 O.2     1  UNL1       -0.2749
     28 N         140.8037  141.3494  169.0651 N.am    1  UNL1       -0.2794
     29 C         141.4381  141.7996  167.7826 C.3     1  UNL1        0.0954
     30 C         140.9709  141.2317  166.4751 C.3     1  UNL1        0.0459
     31 C         139.8694  140.2138  166.4503 C.3     1  UNL1        0.1083
     32 C         139.2351  139.7637  167.7328 C.3     1  UNL1        0.0459
     33 C         139.7022  140.3315  169.0403 C.3     1  UNL1        0.0954
@<TRIPOS>BOND
     1    25    26    1
     2    26    27    2
     3    26    28   am
     4    28    29    1
     5    29    30    1
     6    30    31    1
     7    31    19    1
     8    19    20   ar
     9    20    21   ar
    10    21    22   ar
    11    22     1    1
    12     1     3    1
    13     3     4   ar
    14     4     5   ar
    15     5     6   ar
    16     6     7    1
    17     6     8   ar
    18     8    10    1
    19    10    11   ar
    20    11    12   ar
    21    12    13   ar
    22    13    14   ar
    23    14    15   ar
    24    15    16   ar
    25    16    17   ar
    26    17    18   ar
    27     8     9   ar
    28    22    23   ar
    29    23    24    1
    30    31    32    1
    31    32    33    1
    32    33    28    1
    33    23    19   ar
    34     9     3   ar
    35    18    10   ar
    36    18    13   ar
    37     1     2    1
