@<TRIPOS>MOLECULE
*****
 20 22 0 0 0
SMALL
GASTEIGER

@<TRIPOS>ATOM
      1 C         139.1162  138.7922  166.2624 C.ar    1  UNL1        0.1588
      2 C         140.2772  139.6780  166.6050 C.ar    1  UNL1        0.0583
      3 C         140.0601  140.2119  167.9899 C.ar    1  UNL1        0.1227
      4 N         138.7649  139.6560  168.5032 N.ar    1  UNL1       -0.0773
      5 O         138.1816  138.7786  167.4356 O.2     1  UNL1       -0.3574
      6 C         140.9772  141.1389  168.7313 C.ar    1  UNL1        0.0209
      7 C         140.4695  142.4623  169.2221 C.ar    1  UNL1        0.0016
      8 C         141.3865  143.3893  169.9635 C.ar    1  UNL1        0.0000
      9 C         142.8113  142.9929  170.2141 C.ar    1  UNL1        0.0000
     10 C         143.3190  141.6695  169.7234 C.ar    1  UNL1        0.0000
     11 C         142.4020  140.7425  168.9820 C.ar    1  UNL1        0.0016
     12 C         138.9237  138.0503  164.9731 C.3     1  UNL1        0.0952
     13 C         137.6935  140.9709  162.5842 C.ar    1  UNL1        0.1575
     14 C         137.7159  140.2776  161.2542 C.ar    1  UNL1        0.1356
     15 N         138.1408  138.8419  161.1639 N.ar    1  UNL1       -0.2395
     16 C         138.5434  138.0994  162.4035 C.ar    1  UNL1        0.0952
     17 C         138.5211  138.7927  163.7334 C.ar    1  UNL1        0.0077
     18 C         138.0962  140.2284  163.8238 C.ar    1  UNL1        0.0362
     19 C         137.7291  143.2541  163.8232 C.3     1  UNL1        0.2525
     20 O         137.2686  142.4066  162.6746 O.3     1  UNL1       -0.4699
@<TRIPOS>BOND
     1    19    20    1
     2    20    13    1
     3    13    14   ar
     4    14    15   ar
     5    15    16   ar
     6    16    17   ar
     7    17    12    1
     8    12     1    1
     9     1     2   ar
    10     2     3   ar
    11     3     6    1
    12     6     7   ar
    13     7     8   ar
    14     8     9   ar
    15     9    10   ar
    16    10    11   ar
    17     3     4   ar
    18     4     5   ar
    19    17    18   ar
    20    18    13   ar
    21     5     1   ar
    22    11     6   ar
@<TRIPOS>MOLECULE
*****
 20 22 0 0 0
SMALL
GASTEIGER

@<TRIPOS>ATOM
      1 C         138.7253  138.7687  166.6790 C.ar    1  UNL1        0.1588
      2 C         139.9269  139.6408  166.8926 C.ar    1  UNL1        0.0583
      3 C         139.8590  140.1903  168.2867 C.ar    1  UNL1        0.1227
      4 N         138.6154  139.6577  168.9348 N.ar    1  UNL1       -0.0773
      5 O         137.9148  138.7791  167.9412 O.2     1  UNL1       -0.3574
      6 C         140.8590  141.1107  168.9213 C.ar    1  UNL1        0.0209
      7 C         140.4463  142.4890  169.3454 C.ar    1  UNL1        0.0016
      8 C         141.4463  143.4095  169.9801 C.ar    1  UNL1        0.0000
      9 C         142.8591  142.9515  170.1906 C.ar    1  UNL1        0.0000
     10 C         143.2719  141.5732  169.7665 C.ar    1  UNL1        0.0000
     11 C         142.2718  140.6528  169.1318 C.ar    1  UNL1        0.0016
     12 C         138.3927  138.0179  165.4238 C.3     1  UNL1        0.0952
     13 C         140.6333  138.1431  162.1505 C.ar    1  UNL1        0.1575
     14 C         140.0861  139.3678  161.4791 C.ar    1  UNL1        0.1356
     15 N         138.9745  140.1425  162.1226 N.ar    1  UNL1       -0.2395
     16 C         138.4101  139.6926  163.4375 C.ar    1  UNL1        0.0952
     17 C         138.9572  138.4679  164.1088 C.ar    1  UNL1        0.0077
     18 C         140.0688  137.6932  163.4653 C.ar    1  UNL1        0.0362
     19 C         142.5530  137.9897  160.4066 C.3     1  UNL1        0.2525
     20 O         141.7449  137.3683  161.5070 O.3     1  UNL1       -0.4699
@<TRIPOS>BOND
     1    19    20    1
     2    20    13    1
     3    13    14   ar
     4    14    15   ar
     5    15    16   ar
     6    16    17   ar
     7    17    12    1
     8    12     1    1
     9     1     2   ar
    10     2     3   ar
    11     3     6    1
    12     6     7   ar
    13     7     8   ar
    14     8     9   ar
    15     9    10   ar
    16    10    11   ar
    17     3     4   ar
    18     4     5   ar
    19    17    18   ar
    20    18    13   ar
    21     5     1   ar
    22    11     6   ar
@<TRIPOS>MOLECULE
*****
 20 22 0 0 0
SMALL
GASTEIGER

@<TRIPOS>ATOM
      1 C         138.6205  138.9871  166.8583 C.ar    1  UNL1        0.1588
      2 C         139.8137  139.8822  167.0164 C.ar    1  UNL1        0.0583
      3 C         139.8884  140.3057  168.4534 C.ar    1  UNL1        0.1227
      4 N         138.7412  139.6724  169.1835 N.ar    1  UNL1       -0.0773
      5 O         137.9577  138.8574  168.1976 O.2     1  UNL1       -0.3574
      6 C         140.9276  141.2047  169.0548 C.ar    1  UNL1        0.0209
      7 C         142.3333  140.7124  169.2323 C.ar    1  UNL1        0.0016
      8 C         143.3727  141.6113  169.8337 C.ar    1  UNL1        0.0000
      9 C         143.0062  143.0028  170.2576 C.ar    1  UNL1        0.0000
     10 C         141.6005  143.4952  170.0800 C.ar    1  UNL1        0.0000
     11 C         140.5612  142.5962  169.4786 C.ar    1  UNL1        0.0016
     12 C         138.1694  138.3360  165.5845 C.3     1  UNL1        0.0952
     13 C         139.7959  138.6049  161.9745 C.ar    1  UNL1        0.1575
     14 C         141.0596  137.8219  162.1740 C.ar    1  UNL1        0.1356
     15 N         141.3599  137.2102  163.5103 N.ar    1  UNL1       -0.2395
     16 C         140.3965  137.3816  164.6471 C.ar    1  UNL1        0.0952
     17 C         139.1328  138.1646  164.4477 C.ar    1  UNL1        0.0077
     18 C         138.8325  138.7763  163.1114 C.ar    1  UNL1        0.0362
     19 C         138.1101  139.7016  160.3297 C.3     1  UNL1        0.2525
     20 O         139.4956  139.2166  160.6382 O.3     1  UNL1       -0.4699
@<TRIPOS>BOND
     1    19    20    1
     2    20    13    1
     3    13    14   ar
     4    14    15   ar
     5    15    16   ar
     6    16    17   ar
     7    17    12    1
     8    12     1    1
     9     1     2   ar
    10     2     3   ar
    11     3     6    1
    12     6     7   ar
    13     7     8   ar
    14     8     9   ar
    15     9    10   ar
    16    10    11   ar
    17     3     4   ar
    18     4     5   ar
    19    17    18   ar
    20    18    13   ar
    21     5     1   ar
    22    11     6   ar
@<TRIPOS>MOLECULE
*****
 20 22 0 0 0
SMALL
GASTEIGER

@<TRIPOS>ATOM
      1 C         139.4169  143.3311  165.2912 C.ar    1  UNL1        0.1588
      2 C         140.3008  142.9575  166.4440 C.ar    1  UNL1        0.0583
      3 C         140.0570  141.5128  166.7658 C.ar    1  UNL1        0.1227
      4 N         139.0224  140.9936  165.8118 N.ar    1  UNL1       -0.0773
      5 O         138.6268  142.1174  164.9005 O.2     1  UNL1       -0.3574
      6 C         140.7297  140.7256  167.8511 C.ar    1  UNL1        0.0209
      7 C         142.0388  140.0445  167.5822 C.ar    1  UNL1        0.0016
      8 C         142.7115  139.2572  168.6674 C.ar    1  UNL1        0.0000
      9 C         142.0750  139.1511  170.0216 C.ar    1  UNL1        0.0000
     10 C         140.7659  139.8322  170.2905 C.ar    1  UNL1        0.0000
     11 C         140.0932  140.6195  169.2052 C.ar    1  UNL1        0.0016
     12 C         139.3372  144.6814  164.6429 C.3     1  UNL1        0.0952
     13 C         141.8539  144.5531  161.5770 C.ar    1  UNL1        0.1575
     14 C         141.0797  145.3151  160.5427 C.ar    1  UNL1        0.1356
     15 N         139.7247  145.8659  160.8750 N.ar    1  UNL1       -0.2395
     16 C         139.1438  145.6547  162.2417 C.ar    1  UNL1        0.0952
     17 C         139.9180  144.8927  163.2761 C.ar    1  UNL1        0.0077
     18 C         141.2731  144.3419  162.9437 C.ar    1  UNL1        0.0362
     19 C         144.2409  143.8483  162.3223 C.3     1  UNL1        0.2525
     20 O         143.2090  144.0024  161.2446 O.3     1  UNL1       -0.4699
@<TRIPOS>BOND
     1    19    20    1
     2    20    13    1
     3    13    14   ar
     4    14    15   ar
     5    15    16   ar
     6    16    17   ar
     7    17    12    1
     8    12     1    1
     9     1     2   ar
    10     2     3   ar
    11     3     6    1
    12     6     7   ar
    13     7     8   ar
    14     8     9   ar
    15     9    10   ar
    16    10    11   ar
    17     3     4   ar
    18     4     5   ar
    19    17    18   ar
    20    18    13   ar
    21     5     1   ar
    22    11     6   ar
@<TRIPOS>MOLECULE
*****
 20 22 0 0 0
SMALL
GASTEIGER

@<TRIPOS>ATOM
      1 C         138.3536  139.6916  165.6162 C.ar    1  UNL1        0.1588
      2 C         139.4656  140.3229  166.4004 C.ar    1  UNL1        0.0583
      3 C         139.3321  139.8851  167.8288 C.ar    1  UNL1        0.1227
      4 N         138.1376  138.9831  167.9275 N.ar    1  UNL1       -0.0773
      5 O         137.5329  138.8636  166.5601 O.2     1  UNL1       -0.3574
      6 C         140.2347  140.2798  168.9600 C.ar    1  UNL1        0.0209
      7 C         141.5682  139.6128  169.1234 C.ar    1  UNL1        0.0016
      8 C         142.4709  140.0075  170.2545 C.ar    1  UNL1        0.0000
      9 C         142.0399  141.0694  171.2224 C.ar    1  UNL1        0.0000
     10 C         140.7063  141.7364  171.0590 C.ar    1  UNL1        0.0000
     11 C         139.8038  141.3417  169.9278 C.ar    1  UNL1        0.0016
     12 C         138.1059  139.8590  164.1464 C.3     1  UNL1        0.0952
     13 C         138.5389  143.7839  163.7497 C.ar    1  UNL1        0.1575
     14 C         138.1715  143.9653  162.3068 C.ar    1  UNL1        0.1356
     15 N         137.7822  142.7778  161.4770 N.ar    1  UNL1       -0.2395
     16 C         137.7603  141.4091  162.0902 C.ar    1  UNL1        0.0952
     17 C         138.1277  141.2278  163.5331 C.ar    1  UNL1        0.0077
     18 C         138.5170  142.4152  164.3629 C.ar    1  UNL1        0.0362
     19 C         138.4265  145.0994  165.9873 C.3     1  UNL1        0.2525
     20 O         138.9281  144.9713  164.5795 O.3     1  UNL1       -0.4699
@<TRIPOS>BOND
     1    19    20    1
     2    20    13    1
     3    13    14   ar
     4    14    15   ar
     5    15    16   ar
     6    16    17   ar
     7    17    12    1
     8    12     1    1
     9     1     2   ar
    10     2     3   ar
    11     3     6    1
    12     6     7   ar
    13     7     8   ar
    14     8     9   ar
    15     9    10   ar
    16    10    11   ar
    17     3     4   ar
    18     4     5   ar
    19    17    18   ar
    20    18    13   ar
    21     5     1   ar
    22    11     6   ar
@<TRIPOS>MOLECULE
*****
 20 22 0 0 0
SMALL
GASTEIGER

@<TRIPOS>ATOM
      1 C         143.8452  139.2527  165.5255 C.ar    1  UNL1        0.1588
      2 C         142.9357  140.3260  166.0457 C.ar    1  UNL1        0.0583
      3 C         142.5544  139.9691  167.4519 C.ar    1  UNL1        0.1227
      4 N         143.2283  138.6752  167.8007 N.ar    1  UNL1       -0.0773
      5 O         144.0261  138.2324  166.6101 O.2     1  UNL1       -0.3574
      6 C         141.6568  140.7662  168.3513 C.ar    1  UNL1        0.0209
      7 C         142.0186  142.1761  168.7138 C.ar    1  UNL1        0.0016
      8 C         141.1211  142.9732  169.6132 C.ar    1  UNL1        0.0000
      9 C         139.8616  142.3604  170.1502 C.ar    1  UNL1        0.0000
     10 C         139.4998  140.9506  169.7877 C.ar    1  UNL1        0.0000
     11 C         140.3974  140.1535  168.8883 C.ar    1  UNL1        0.0016
     12 C         144.4651  139.2075  164.1603 C.3     1  UNL1        0.0952
     13 C         141.4061  137.9544  161.9643 C.ar    1  UNL1        0.1575
     14 C         141.9492  138.1555  160.5807 C.ar    1  UNL1        0.1356
     15 N         143.3310  138.7073  160.3902 N.ar    1  UNL1       -0.2395
     16 C         144.1696  139.0579  161.5834 C.ar    1  UNL1        0.0952
     17 C         143.6265  138.8568  162.9670 C.ar    1  UNL1        0.0077
     18 C         142.2447  138.3051  163.1575 C.ar    1  UNL1        0.0362
     19 C         138.8512  138.0787  161.5092 C.3     1  UNL1        0.2525
     20 O         140.0243  137.4027  162.1548 O.3     1  UNL1       -0.4699
@<TRIPOS>BOND
     1    19    20    1
     2    20    13    1
     3    13    14   ar
     4    14    15   ar
     5    15    16   ar
     6    16    17   ar
     7    17    12    1
     8    12     1    1
     9     1     2   ar
    10     2     3   ar
    11     3     6    1
    12     6     7   ar
    13     7     8   ar
    14     8     9   ar
    15     9    10   ar
    16    10    11   ar
    17     3     4   ar
    18     4     5   ar
    19    17    18   ar
    20    18    13   ar
    21     5     1   ar
    22    11     6   ar
@<TRIPOS>MOLECULE
*****
 20 22 0 0 0
SMALL
GASTEIGER

@<TRIPOS>ATOM
      1 C         140.1261  138.8241  165.6424 C.ar    1  UNL1        0.1588
      2 C         139.9692  139.9280  166.6457 C.ar    1  UNL1        0.0583
      3 C         141.3252  140.2431  167.2041 C.ar    1  UNL1        0.1227
      4 N         142.3203  139.3338  166.5460 N.ar    1  UNL1       -0.0773
      5 O         141.5792  138.4568  165.5808 O.2     1  UNL1       -0.3574
      6 C         141.6323  141.2846  168.2391 C.ar    1  UNL1        0.0209
      7 C         140.5873  142.2887  168.6257 C.ar    1  UNL1        0.0016
      8 C         140.8943  143.3303  169.6606 C.ar    1  UNL1        0.0000
      9 C         142.2465  143.3676  170.3089 C.ar    1  UNL1        0.0000
     10 C         143.2916  142.3634  169.9222 C.ar    1  UNL1        0.0000
     11 C         142.9844  141.3219  168.8873 C.ar    1  UNL1        0.0016
     12 C         139.0236  138.1974  164.8414 C.3     1  UNL1        0.0952
     13 C         137.6707  140.9036  162.2730 C.ar    1  UNL1        0.1575
     14 C         137.6662  140.1094  161.0006 C.ar    1  UNL1        0.1356
     15 N         138.1142  138.6779  161.0084 N.ar    1  UNL1       -0.2395
     16 C         138.5666  138.0405  162.2886 C.ar    1  UNL1        0.0952
     17 C         138.5711  138.8347  163.5610 C.ar    1  UNL1        0.0077
     18 C         138.1232  140.2663  163.5533 C.ar    1  UNL1        0.0362
     19 C         138.0430  143.3814  162.9598 C.3     1  UNL1        0.2525
     20 O         137.2227  142.3351  162.2653 O.3     1  UNL1       -0.4699
@<TRIPOS>BOND
     1    19    20    1
     2    20    13    1
     3    13    14   ar
     4    14    15   ar
     5    15    16   ar
     6    16    17   ar
     7    17    12    1
     8    12     1    1
     9     1     2   ar
    10     2     3   ar
    11     3     6    1
    12     6     7   ar
    13     7     8   ar
    14     8     9   ar
    15     9    10   ar
    16    10    11   ar
    17     3     4   ar
    18     4     5   ar
    19    17    18   ar
    20    18    13   ar
    21     5     1   ar
    22    11     6   ar
@<TRIPOS>MOLECULE
*****
 20 22 0 0 0
SMALL
GASTEIGER

@<TRIPOS>ATOM
      1 C         143.3883  139.0853  166.0711 C.ar    1  UNL1        0.1588
      2 C         142.5201  140.2364  166.4850 C.ar    1  UNL1        0.0583
      3 C         142.3010  140.1428  167.9659 C.ar    1  UNL1        0.1227
      4 N         143.0337  138.9337  168.4674 N.ar    1  UNL1       -0.0773
      5 O         143.7057  138.2802  167.2963 O.2     1  UNL1       -0.3574
      6 C         141.4913  141.0915  168.7991 C.ar    1  UNL1        0.0209
      7 C         141.9940  142.4814  169.0552 C.ar    1  UNL1        0.0016
      8 C         141.1844  143.4303  169.8884 C.ar    1  UNL1        0.0000
      9 C         139.8719  142.9891  170.4656 C.ar    1  UNL1        0.0000
     10 C         139.3692  141.5993  170.2095 C.ar    1  UNL1        0.0000
     11 C         140.1789  140.6505  169.3762 C.ar    1  UNL1        0.0016
     12 C         143.8567  138.7910  164.6769 C.3     1  UNL1        0.0952
     13 C         143.6506  141.4156  161.7073 C.ar    1  UNL1        0.1575
     14 C         144.9329  142.1684  161.9048 C.ar    1  UNL1        0.1356
     15 N         145.8564  141.7954  163.0263 N.ar    1  UNL1       -0.2395
     16 C         145.4977  140.6696  163.9504 C.ar    1  UNL1        0.0952
     17 C         144.2155  139.9168  163.7529 C.ar    1  UNL1        0.0077
     18 C         143.2919  140.2898  162.6313 C.ar    1  UNL1        0.0362
     19 C         141.6586  142.8184  160.8050 C.3     1  UNL1        0.2525
     20 O         142.7270  141.7886  160.5857 O.3     1  UNL1       -0.4699
@<TRIPOS>BOND
     1    19    20    1
     2    20    13    1
     3    13    14   ar
     4    14    15   ar
     5    15    16   ar
     6    16    17   ar
     7    17    12    1
     8    12     1    1
     9     1     2   ar
    10     2     3   ar
    11     3     6    1
    12     6     7   ar
    13     7     8   ar
    14     8     9   ar
    15     9    10   ar
    16    10    11   ar
    17     3     4   ar
    18     4     5   ar
    19    17    18   ar
    20    18    13   ar
    21     5     1   ar
    22    11     6   ar
@<TRIPOS>MOLECULE
*****
 20 22 0 0 0
SMALL
GASTEIGER

@<TRIPOS>ATOM
      1 C         143.8411  139.3771  165.3294 C.ar    1  UNL1        0.1588
      2 C         142.9464  140.4402  165.8945 C.ar    1  UNL1        0.0583
      3 C         142.5484  140.0232  167.2793 C.ar    1  UNL1        0.1227
      4 N         143.1971  138.7023  167.5701 N.ar    1  UNL1       -0.0773
      5 O         143.9960  138.3030  166.3650 O.2     1  UNL1       -0.3574
      6 C         141.6580  140.7921  168.2099 C.ar    1  UNL1        0.0209
      7 C         140.4407  140.1387  168.7939 C.ar    1  UNL1        0.0016
      8 C         139.5502  140.9075  169.7246 C.ar    1  UNL1        0.0000
      9 C         139.8773  142.3299  170.0712 C.ar    1  UNL1        0.0000
     10 C         141.0946  142.9833  169.4871 C.ar    1  UNL1        0.0000
     11 C         141.9850  142.2144  168.5565 C.ar    1  UNL1        0.0016
     12 C         144.4703  139.3863  163.9678 C.3     1  UNL1        0.0952
     13 C         143.3590  138.7985  160.2036 C.ar    1  UNL1        0.1575
     14 C         142.1314  137.9588  160.3983 C.ar    1  UNL1        0.1356
     15 N         141.6835  137.5949  161.7828 N.ar    1  UNL1       -0.2395
     16 C         142.4631  138.0708  162.9727 C.ar    1  UNL1        0.0952
     17 C         143.6907  138.9105  162.7780 C.ar    1  UNL1        0.0077
     18 C         144.1386  139.2744  161.3934 C.ar    1  UNL1        0.0362
     19 C         142.7940  139.5283  157.7750 C.3     1  UNL1        0.2525
     20 O         143.8069  139.1624  158.8191 O.3     1  UNL1       -0.4699
@<TRIPOS>BOND
     1    19    20    1
     2    20    13    1
     3    13    14   ar
     4    14    15   ar
     5    15    16   ar
     6    16    17   ar
     7    17    12    1
     8    12     1    1
     9     1     2   ar
    10     2     3   ar
    11     3     6    1
    12     6     7   ar
    13     7     8   ar
    14     8     9   ar
    15     9    10   ar
    16    10    11   ar
    17     3     4   ar
    18     4     5   ar
    19    17    18   ar
    20    18    13   ar
    21     5     1   ar
    22    11     6   ar
