@<TRIPOS>MOLECULE
*****
 28 31 0 0 0
SMALL
GASTEIGER

@<TRIPOS>ATOM
      1 C         140.7160  141.4635  165.2437 C.ar    1  UNL1        0.0735
      2 C         140.7306  142.0397  166.6285 C.ar    1  UNL1        0.1655
      3 O         139.8556  143.2581  166.6328 O.2     1  UNL1       -0.4519
      4 C         139.3002  143.4348  165.2506 C.ar    1  UNL1        0.1454
      5 C         138.3790  144.4624  164.6630 C.ar    1  UNL1        0.0406
      6 C         137.9895  144.3808  163.2167 C.ar    1  UNL1        0.0395
      7 C         138.5213  143.2717  162.3582 C.ar    1  UNL1        0.1311
      8 O         138.1317  143.1901  160.9119 O.3     1  UNL1       -0.5058
      9 C         139.4425  142.2441  162.9459 C.ar    1  UNL1        0.0307
     10 C         139.8319  142.3257  164.3921 C.ar    1  UNL1        0.0406
     11 H         137.5563  143.8320  160.5448 H       1  UNL1        0.2922
     12 C         141.4873  141.4935  167.8028 C.ar    1  UNL1        0.1157
     13 C         142.6087  142.2858  168.4067 C.ar    1  UNL1        0.0210
     14 C         143.3655  141.7396  169.5810 C.ar    1  UNL1        0.0150
     15 C         144.4869  142.5320  170.1848 C.3     1  UNL1        0.0343
     16 C         143.0008  140.4012  170.1514 C.ar    1  UNL1        0.1487
     17 O         143.7576  139.8550  171.3257 O.3     1  UNL1       -0.5043
     18 C         141.8795  139.6089  169.5476 C.ar    1  UNL1        0.1351
     19 N         141.1227  140.1551  168.3732 N.ar    1  UNL1       -0.2376
     20 H         144.4581  140.3499  171.7030 H       1  UNL1        0.2922
     21 C         140.8597  138.8802  165.0060 C.3     1  UNL1        0.0774
     22 C         141.4555  140.2398  164.7900 C.2     1  UNL1        0.1766
     23 O         142.7908  140.3757  164.1205 O.2     1  UNL1       -0.2912
     24 C         139.9742  141.1350  162.0874 C.3     1  UNL1        0.1023
     25 N         139.2174  139.8448  161.9751 N.3     1  UNL1       -0.2688
     26 C         137.9323  139.3163  162.5399 C.3     1  UNL1        0.0738
     27 C         138.1471  138.0201  161.8162 C.3     1  UNL1        0.0347
     28 C         139.4323  138.5485  161.2514 C.3     1  UNL1        0.0738
@<TRIPOS>BOND
     1    21    22    1
     2    22    23    2
     3    22     1    1
     4     1     2   ar
     5     2    12    1
     6    12    13   ar
     7    13    14   ar
     8    14    15    1
     9    14    16   ar
    10    16    17    1
    11    16    18   ar
    12    18    19   ar
    13     2     3   ar
    14     3     4   ar
    15     4     5   ar
    16     5     6   ar
    17     6     7   ar
    18     7     8    1
    19     7     9   ar
    20     9    24    1
    21    24    25    1
    22    25    26    1
    23    26    27    1
    24    27    28    1
    25     9    10   ar
    26    10     1   ar
    27    19    12   ar
    28    10     4   ar
    29    28    25    1
    30    17    20    1
    31     8    11    1
@<TRIPOS>MOLECULE
*****
 28 31 0 0 0
SMALL
GASTEIGER

@<TRIPOS>ATOM
      1 C         141.3216  139.6256  165.8402 C.ar    1  UNL1        0.0735
      2 C         140.1436  139.9725  166.7016 C.ar    1  UNL1        0.1655
      3 O         138.8965  139.6420  165.9364 O.2     1  UNL1       -0.4519
      4 C         139.3037  139.0908  164.6021 C.ar    1  UNL1        0.1454
      5 C         138.5034  138.5969  163.4336 C.ar    1  UNL1        0.0406
      6 C         139.2018  138.0928  162.2056 C.ar    1  UNL1        0.0395
      7 C         140.7006  138.0826  162.1461 C.ar    1  UNL1        0.1311
      8 O         141.3990  137.5784  160.9181 O.3     1  UNL1       -0.5058
      9 C         141.5009  138.5766  163.3146 C.ar    1  UNL1        0.0307
     10 C         140.8025  139.0807  164.5426 C.ar    1  UNL1        0.0406
     11 H         140.8991  137.2699  160.1881 H       1  UNL1        0.2922
     12 C         140.2025  140.5488  168.0852 C.ar    1  UNL1        0.1157
     13 C         140.3168  142.0322  168.2756 C.ar    1  UNL1        0.0210
     14 C         140.3757  142.6085  169.6593 C.ar    1  UNL1        0.0150
     15 C         140.4901  144.0920  169.8496 C.3     1  UNL1        0.0343
     16 C         140.3201  141.7013  170.8525 C.ar    1  UNL1        0.1487
     17 O         140.3789  142.2775  172.2362 O.3     1  UNL1       -0.5043
     18 C         140.2057  140.2179  170.6621 C.ar    1  UNL1        0.1351
     19 N         140.1469  139.6416  169.2785 N.ar    1  UNL1       -0.2376
     20 H         140.4504  143.2042  172.3551 H       1  UNL1        0.2922
     21 C         143.5623  138.6122  166.6785 C.3     1  UNL1        0.0774
     22 C         142.7652  139.7940  166.2111 C.2     1  UNL1        0.1766
     23 O         143.4118  141.1439  166.1148 O.2     1  UNL1       -0.2912
     24 C         142.9997  138.5664  163.2551 C.3     1  UNL1        0.1023
     25 N         143.7452  139.8219  162.9120 N.3     1  UNL1       -0.2688
     26 C         145.0852  140.3919  163.2721 C.3     1  UNL1        0.0738
     27 C         144.7996  141.5976  162.4266 C.3     1  UNL1        0.0347
     28 C         143.4597  141.0276  162.0665 C.3     1  UNL1        0.0738
@<TRIPOS>BOND
     1    21    22    1
     2    22    23    2
     3    22     1    1
     4     1     2   ar
     5     2    12    1
     6    12    13   ar
     7    13    14   ar
     8    14    15    1
     9    14    16   ar
    10    16    17    1
    11    16    18   ar
    12    18    19   ar
    13     2     3   ar
    14     3     4   ar
    15     4     5   ar
    16     5     6   ar
    17     6     7   ar
    18     7     8    1
    19     7     9   ar
    20     9    24    1
    21    24    25    1
    22    25    26    1
    23    26    27    1
    24    27    28    1
    25     9    10   ar
    26    10     1   ar
    27    19    12   ar
    28    10     4   ar
    29    28    25    1
    30    17    20    1
    31     8    11    1
@<TRIPOS>MOLECULE
*****
 28 31 0 0 0
SMALL
GASTEIGER

@<TRIPOS>ATOM
      1 C         140.5242  139.7361  165.7395 C.ar    1  UNL1        0.0735
      2 C         141.5287  140.0980  166.7931 C.ar    1  UNL1        0.1655
      3 O         142.8960  139.8063  166.2496 O.2     1  UNL1       -0.4519
      4 C         142.7366  139.2642  164.8601 C.ar    1  UNL1        0.1454
      5 C         143.7368  138.8044  163.8413 C.ar    1  UNL1        0.0406
      6 C         143.2711  138.3013  162.5071 C.ar    1  UNL1        0.0395
      7 C         141.8053  138.2579  162.1919 C.ar    1  UNL1        0.1311
      8 O         141.3397  137.7548  160.8576 O.3     1  UNL1       -0.5058
      9 C         140.8051  138.7177  163.2107 C.ar    1  UNL1        0.0307
     10 C         141.2707  139.2208  164.5449 C.ar    1  UNL1        0.0406
     11 H         141.9645  137.4676  160.2212 H       1  UNL1        0.2922
     12 C         141.2200  140.6539  168.1517 C.ar    1  UNL1        0.1157
     13 C         140.9637  142.1222  168.3207 C.ar    1  UNL1        0.0210
     14 C         140.6551  142.6781  169.6793 C.ar    1  UNL1        0.0150
     15 C         140.3988  144.1464  169.8483 C.3     1  UNL1        0.0343
     16 C         140.6027  141.7658  170.8688 C.ar    1  UNL1        0.1487
     17 O         140.2941  142.3217  172.2274 O.3     1  UNL1       -0.5043
     18 C         140.8590  140.2976  170.6998 C.ar    1  UNL1        0.1351
     19 N         141.1676  139.7417  169.3412 N.ar    1  UNL1       -0.2376
     20 H         140.1340  143.2389  172.3330 H       1  UNL1        0.2922
     21 C         138.2481  138.8270  166.6015 C.3     1  UNL1        0.0774
     22 C         139.0347  139.8667  165.8595 C.2     1  UNL1        0.1766
     23 O         138.3318  141.0366  165.2375 O.2     1  UNL1       -0.2912
     24 C         139.3392  138.6743  162.8954 C.3     1  UNL1        0.1023
     25 N         138.7911  139.4911  161.7631 N.3     1  UNL1       -0.2688
     26 C         139.2601  140.6933  160.9983 C.3     1  UNL1        0.0738
     27 C         138.0160  140.6464  160.1615 C.3     1  UNL1        0.0347
     28 C         137.5471  139.4442  160.9263 C.3     1  UNL1        0.0738
@<TRIPOS>BOND
     1    21    22    1
     2    22    23    2
     3    22     1    1
     4     1     2   ar
     5     2    12    1
     6    12    13   ar
     7    13    14   ar
     8    14    15    1
     9    14    16   ar
    10    16    17    1
    11    16    18   ar
    12    18    19   ar
    13     2     3   ar
    14     3     4   ar
    15     4     5   ar
    16     5     6   ar
    17     6     7   ar
    18     7     8    1
    19     7     9   ar
    20     9    24    1
    21    24    25    1
    22    25    26    1
    23    26    27    1
    24    27    28    1
    25     9    10   ar
    26    10     1   ar
    27    19    12   ar
    28    10     4   ar
    29    28    25    1
    30    17    20    1
    31     8    11    1
@<TRIPOS>MOLECULE
*****
 28 31 0 0 0
SMALL
GASTEIGER

@<TRIPOS>ATOM
      1 C         140.7415  139.5253  165.3213 C.ar    1  UNL1        0.0735
      2 C         141.5259  140.3295  166.3152 C.ar    1  UNL1        0.1655
      3 O         142.9523  140.3736  165.8532 O.2     1  UNL1       -0.4519
      4 C         143.0494  139.5967  164.5738 C.ar    1  UNL1        0.1454
      5 C         144.2055  139.2989  163.6656 C.ar    1  UNL1        0.0406
      6 C         143.9952  138.4769  162.4287 C.ar    1  UNL1        0.0395
      7 C         142.6288  137.9526  162.1000 C.ar    1  UNL1        0.1311
      8 O         142.4185  137.1305  160.8630 O.3     1  UNL1       -0.5058
      9 C         141.4727  138.2504  163.0081 C.ar    1  UNL1        0.0307
     10 C         141.6830  139.0724  164.2450 C.ar    1  UNL1        0.0406
     11 H         143.1407  136.9445  160.2957 H       1  UNL1        0.2922
     12 C         140.9799  140.9760  167.5537 C.ar    1  UNL1        0.1157
     13 C         139.9399  140.2700  168.3721 C.ar    1  UNL1        0.0210
     14 C         139.3938  140.9165  169.6106 C.ar    1  UNL1        0.0150
     15 C         138.3537  140.2104  170.4290 C.3     1  UNL1        0.0343
     16 C         139.8878  142.2691  170.0307 C.ar    1  UNL1        0.1487
     17 O         139.3418  142.9156  171.2691 O.3     1  UNL1       -0.5043
     18 C         140.9278  142.9751  169.2123 C.ar    1  UNL1        0.1351
     19 N         141.4739  142.3286  167.9738 N.ar    1  UNL1       -0.2376
     20 H         138.6921  142.4746  171.7804 H       1  UNL1        0.2922
     21 C         138.2741  140.2867  165.0336 C.3     1  UNL1        0.0774
     22 C         139.2732  139.2265  165.3913 C.2     1  UNL1        0.1766
     23 O         138.8039  137.8675  165.8189 O.2     1  UNL1       -0.2912
     24 C         140.1063  137.7261  162.6793 C.3     1  UNL1        0.1023
     25 N         139.1211  138.5990  161.9601 N.3     1  UNL1       -0.2688
     26 C         137.6585  138.5072  161.6401 C.3     1  UNL1        0.0738
     27 C         137.7277  139.8335  160.9428 C.3     1  UNL1        0.0347
     28 C         139.1903  139.9253  161.2628 C.3     1  UNL1        0.0738
@<TRIPOS>BOND
     1    21    22    1
     2    22    23    2
     3    22     1    1
     4     1     2   ar
     5     2    12    1
     6    12    13   ar
     7    13    14   ar
     8    14    15    1
     9    14    16   ar
    10    16    17    1
    11    16    18   ar
    12    18    19   ar
    13     2     3   ar
    14     3     4   ar
    15     4     5   ar
    16     5     6   ar
    17     6     7   ar
    18     7     8    1
    19     7     9   ar
    20     9    24    1
    21    24    25    1
    22    25    26    1
    23    26    27    1
    24    27    28    1
    25     9    10   ar
    26    10     1   ar
    27    19    12   ar
    28    10     4   ar
    29    28    25    1
    30    17    20    1
    31     8    11    1
@<TRIPOS>MOLECULE
*****
 28 31 0 0 0
SMALL
GASTEIGER

@<TRIPOS>ATOM
      1 C         141.7680  143.1134  165.5948 C.ar    1  UNL1        0.0735
      2 C         140.6341  143.0942  166.5766 C.ar    1  UNL1        0.1655
      3 O         139.4580  143.7732  165.9396 O.2     1  UNL1       -0.4519
      4 C         139.8650  144.2119  164.5642 C.ar    1  UNL1        0.1454
      5 C         139.1200  144.9300  163.4782 C.ar    1  UNL1        0.0406
      6 C         139.8027  145.2403  162.1792 C.ar    1  UNL1        0.0395
      7 C         141.2304  144.8325  161.9661 C.ar    1  UNL1        0.1311
      8 O         141.9131  145.1429  160.6670 O.3     1  UNL1       -0.5058
      9 C         141.9754  144.1144  163.0520 C.ar    1  UNL1        0.0307
     10 C         141.2926  143.8041  164.3510 C.ar    1  UNL1        0.0406
     11 H         141.4477  145.5915  159.9886 H       1  UNL1        0.2922
     12 C         140.6700  142.5005  167.9536 C.ar    1  UNL1        0.1157
     13 C         141.2815  141.1482  168.1716 C.ar    1  UNL1        0.0210
     14 C         141.3175  140.5545  169.5486 C.ar    1  UNL1        0.0150
     15 C         141.9290  139.2022  169.7665 C.3     1  UNL1        0.0343
     16 C         140.7419  141.3129  170.7076 C.ar    1  UNL1        0.1487
     17 O         140.7779  140.7191  172.0846 O.3     1  UNL1       -0.5043
     18 C         140.1304  142.6651  170.4897 C.ar    1  UNL1        0.1351
     19 N         140.0945  143.2589  169.1127 N.ar    1  UNL1       -0.2376
     20 H         141.1599  139.8744  172.2208 H       1  UNL1        0.2922
     21 C         143.4102  141.1025  165.4963 C.3     1  UNL1        0.0774
     22 C         143.1369  142.5420  165.8176 C.2     1  UNL1        0.1766
     23 O         144.2325  143.4101  166.3617 O.2     1  UNL1       -0.2912
     24 C         143.4030  143.7066  162.8389 C.3     1  UNL1        0.1023
     25 N         143.7198  142.3604  162.2581 N.3     1  UNL1       -0.2688
     26 C         144.9577  141.5220  162.1373 C.3     1  UNL1        0.0738
     27 C         144.1679  140.4565  161.4366 C.3     1  UNL1        0.0347
     28 C         142.9299  141.2950  161.5574 C.3     1  UNL1        0.0738
@<TRIPOS>BOND
     1    21    22    1
     2    22    23    2
     3    22     1    1
     4     1     2   ar
     5     2    12    1
     6    12    13   ar
     7    13    14   ar
     8    14    15    1
     9    14    16   ar
    10    16    17    1
    11    16    18   ar
    12    18    19   ar
    13     2     3   ar
    14     3     4   ar
    15     4     5   ar
    16     5     6   ar
    17     6     7   ar
    18     7     8    1
    19     7     9   ar
    20     9    24    1
    21    24    25    1
    22    25    26    1
    23    26    27    1
    24    27    28    1
    25     9    10   ar
    26    10     1   ar
    27    19    12   ar
    28    10     4   ar
    29    28    25    1
    30    17    20    1
    31     8    11    1
@<TRIPOS>MOLECULE
*****
 28 31 0 0 0
SMALL
GASTEIGER

@<TRIPOS>ATOM
      1 C         140.1027  140.5708  165.1651 C.ar    1  UNL1        0.0735
      2 C         139.8132  139.5948  166.2667 C.ar    1  UNL1        0.1655
      3 O         139.2597  138.3463  165.6463 O.2     1  UNL1       -0.4519
      4 C         139.2070  138.5508  164.1612 C.ar    1  UNL1        0.1454
      5 C         138.7519  137.6627  163.0413 C.ar    1  UNL1        0.0406
      6 C         138.8178  138.1495  161.6241 C.ar    1  UNL1        0.0395
      7 C         139.3388  139.5243  161.3267 C.ar    1  UNL1        0.1311
      8 O         139.4047  140.0111  159.9093 O.3     1  UNL1       -0.5058
      9 C         139.7939  140.4124  162.4466 C.ar    1  UNL1        0.0307
     10 C         139.7280  139.9256  163.8638 C.ar    1  UNL1        0.0406
     11 H         139.1204  139.4563  159.2098 H       1  UNL1        0.2922
     12 C         140.0380  139.8265  167.7316 C.ar    1  UNL1        0.1157
     13 C         141.4317  139.9988  168.2585 C.ar    1  UNL1        0.0210
     14 C         141.6564  140.2305  169.7234 C.ar    1  UNL1        0.0150
     15 C         143.0503  140.4029  170.2503 C.3     1  UNL1        0.0343
     16 C         140.4874  140.2898  170.6613 C.ar    1  UNL1        0.1487
     17 O         140.7121  140.5215  172.1262 O.3     1  UNL1       -0.5043
     18 C         139.0936  140.1175  170.1344 C.ar    1  UNL1        0.1351
     19 N         138.8689  139.8858  168.6695 N.ar    1  UNL1       -0.2376
     20 H         141.5827  140.6292  172.4553 H       1  UNL1        0.2922
     21 C         139.8162  143.0439  165.9081 C.3     1  UNL1        0.0774
     22 C         140.6676  141.9499  165.3349 C.2     1  UNL1        0.1766
     23 O         142.0839  142.2352  164.9317 O.2     1  UNL1       -0.2912
     24 C         140.3149  141.7872  162.1492 C.3     1  UNL1        0.1023
     25 N         139.4435  142.9859  162.3813 N.3     1  UNL1       -0.2688
     26 C         139.6814  144.4614  162.5086 C.3     1  UNL1        0.0738
     27 C         138.2113  144.6812  162.7094 C.3     1  UNL1        0.0347
     28 C         137.9734  143.2057  162.5820 C.3     1  UNL1        0.0738
@<TRIPOS>BOND
     1    21    22    1
     2    22    23    2
     3    22     1    1
     4     1     2   ar
     5     2    12    1
     6    12    13   ar
     7    13    14   ar
     8    14    15    1
     9    14    16   ar
    10    16    17    1
    11    16    18   ar
    12    18    19   ar
    13     2     3   ar
    14     3     4   ar
    15     4     5   ar
    16     5     6   ar
    17     6     7   ar
    18     7     8    1
    19     7     9   ar
    20     9    24    1
    21    24    25    1
    22    25    26    1
    23    26    27    1
    24    27    28    1
    25     9    10   ar
    26    10     1   ar
    27    19    12   ar
    28    10     4   ar
    29    28    25    1
    30    17    20    1
    31     8    11    1
@<TRIPOS>MOLECULE
*****
 28 31 0 0 0
SMALL
GASTEIGER

@<TRIPOS>ATOM
      1 C         142.0901  142.8696  165.0998 C.ar    1  UNL1        0.0735
      2 C         141.2152  142.2927  166.1730 C.ar    1  UNL1        0.1655
      3 O         139.8075  142.7417  165.9145 O.2     1  UNL1       -0.4519
      4 C         139.8124  143.5960  164.6816 C.ar    1  UNL1        0.1454
      5 C         138.7145  144.3122  163.9525 C.ar    1  UNL1        0.0406
      6 C         139.0274  145.1074  162.7197 C.ar    1  UNL1        0.0395
      7 C         140.4381  145.1865  162.2161 C.ar    1  UNL1        0.1311
      8 O         140.7510  145.9817  160.9833 O.3     1  UNL1       -0.5058
      9 C         141.5360  144.4703  162.9453 C.ar    1  UNL1        0.0307
     10 C         141.2231  143.6751  164.1781 C.ar    1  UNL1        0.0406
     11 H         140.0651  146.4291  160.5278 H       1  UNL1        0.2922
     12 C         141.6684  141.4201  167.3057 C.ar    1  UNL1        0.1157
     13 C         141.4960  141.8807  168.7228 C.ar    1  UNL1        0.0210
     14 C         141.9492  141.0081  169.8555 C.ar    1  UNL1        0.0150
     15 C         141.7768  141.4688  171.2726 C.3     1  UNL1        0.0343
     16 C         142.5749  139.6748  169.5712 C.ar    1  UNL1        0.1487
     17 O         143.0281  138.8022  170.7040 O.3     1  UNL1       -0.5043
     18 C         142.7473  139.2142  168.1542 C.ar    1  UNL1        0.1351
     19 N         142.2941  140.0868  167.0214 N.ar    1  UNL1       -0.2376
     20 H         142.9204  139.0900  171.5891 H       1  UNL1        0.2922
     21 C         144.5145  143.6869  165.5522 C.3     1  UNL1        0.0774
     22 C         143.5718  142.6751  164.9709 C.2     1  UNL1        0.1766
     23 O         144.1110  141.4690  164.2607 O.2     1  UNL1       -0.2912
     24 C         142.9467  144.5493  162.4417 C.3     1  UNL1        0.1023
     25 N         143.3929  143.6614  161.3182 N.3     1  UNL1       -0.2688
     26 C         142.8251  143.2699  159.9861 C.3     1  UNL1        0.0738
     27 C         144.0238  142.4056  159.7290 C.3     1  UNL1        0.0347
     28 C         144.5916  142.7971  161.0611 C.3     1  UNL1        0.0738
@<TRIPOS>BOND
     1    21    22    1
     2    22    23    2
     3    22     1    1
     4     1     2   ar
     5     2    12    1
     6    12    13   ar
     7    13    14   ar
     8    14    15    1
     9    14    16   ar
    10    16    17    1
    11    16    18   ar
    12    18    19   ar
    13     2     3   ar
    14     3     4   ar
    15     4     5   ar
    16     5     6   ar
    17     6     7   ar
    18     7     8    1
    19     7     9   ar
    20     9    24    1
    21    24    25    1
    22    25    26    1
    23    26    27    1
    24    27    28    1
    25     9    10   ar
    26    10     1   ar
    27    19    12   ar
    28    10     4   ar
    29    28    25    1
    30    17    20    1
    31     8    11    1
@<TRIPOS>MOLECULE
*****
 28 31 0 0 0
SMALL
GASTEIGER

@<TRIPOS>ATOM
      1 C         141.0440  141.0611  165.1914 C.ar    1  UNL1        0.0735
      2 C         140.9162  140.6764  166.6356 C.ar    1  UNL1        0.1655
      3 O         140.1576  139.3843  166.7057 O.2     1  UNL1       -0.4519
      4 C         139.8165  138.9704  165.3049 C.ar    1  UNL1        0.1454
      5 C         139.0779  137.7838  164.7606 C.ar    1  UNL1        0.0406
      6 C         138.8871  137.6334  163.2805 C.ar    1  UNL1        0.0395
      7 C         139.4350  138.6697  162.3446 C.ar    1  UNL1        0.1311
      8 O         139.2442  138.5193  160.8643 O.3     1  UNL1       -0.5058
      9 C         140.1736  139.8563  162.8888 C.ar    1  UNL1        0.0307
     10 C         140.3644  140.0067  164.3690 C.ar    1  UNL1        0.0406
     11 H         138.7828  137.7780  160.5243 H       1  UNL1        0.2922
     12 C         141.4528  141.4484  167.8045 C.ar    1  UNL1        0.1157
     13 C         140.6389  142.5524  168.4115 C.ar    1  UNL1        0.0210
     14 C         141.1755  143.3243  169.5803 C.ar    1  UNL1        0.0150
     15 C         140.3614  144.4284  170.1874 C.3     1  UNL1        0.0343
     16 C         142.5261  142.9922  170.1421 C.ar    1  UNL1        0.1487
     17 O         143.0627  143.7642  171.3110 O.3     1  UNL1       -0.5043
     18 C         143.3400  141.8882  169.5351 C.ar    1  UNL1        0.1351
     19 N         142.8034  141.1163  168.3662 N.ar    1  UNL1       -0.2376
     20 H         142.5542  144.4538  171.6902 H       1  UNL1        0.2922
     21 C         140.9944  143.5905  164.5999 C.3     1  UNL1        0.0774
     22 C         141.7309  142.2852  164.6625 C.2     1  UNL1        0.1766
     23 O         143.1542  142.2041  164.1961 O.2     1  UNL1       -0.2912
     24 C         140.7215  140.8926  161.9529 C.3     1  UNL1        0.1023
     25 N         139.8223  141.5411  160.9425 N.3     1  UNL1       -0.2688
     26 C         139.9177  141.8419  159.4761 C.3     1  UNL1        0.0738
     27 C         138.5506  142.4582  159.5135 C.3     1  UNL1        0.0347
     28 C         138.4552  142.1574  160.9799 C.3     1  UNL1        0.0738
@<TRIPOS>BOND
     1    21    22    1
     2    22    23    2
     3    22     1    1
     4     1     2   ar
     5     2    12    1
     6    12    13   ar
     7    13    14   ar
     8    14    15    1
     9    14    16   ar
    10    16    17    1
    11    16    18   ar
    12    18    19   ar
    13     2     3   ar
    14     3     4   ar
    15     4     5   ar
    16     5     6   ar
    17     6     7   ar
    18     7     8    1
    19     7     9   ar
    20     9    24    1
    21    24    25    1
    22    25    26    1
    23    26    27    1
    24    27    28    1
    25     9    10   ar
    26    10     1   ar
    27    19    12   ar
    28    10     4   ar
    29    28    25    1
    30    17    20    1
    31     8    11    1
@<TRIPOS>MOLECULE
*****
 28 31 0 0 0
SMALL
GASTEIGER

@<TRIPOS>ATOM
      1 C         141.2494  142.7713  165.3474 C.ar    1  UNL1        0.0735
      2 C         142.1716  142.2792  166.4232 C.ar    1  UNL1        0.1655
      3 O         143.5730  142.3283  165.8906 O.2     1  UNL1       -0.4519
      4 C         143.5169  142.8508  164.4856 C.ar    1  UNL1        0.1454
      5 C         144.5879  143.1126  163.4686 C.ar    1  UNL1        0.0406
      6 C         144.2228  143.6481  162.1159 C.ar    1  UNL1        0.0395
      7 C         142.7867  143.9219  161.7802 C.ar    1  UNL1        0.1311
      8 O         142.4216  144.4575  160.4274 O.3     1  UNL1       -0.5058
      9 C         141.7157  143.6601  162.7972 C.ar    1  UNL1        0.0307
     10 C         142.0808  143.1246  164.1499 C.ar    1  UNL1        0.0406
     11 H         143.0906  144.6211  159.7921 H       1  UNL1        0.2922
     12 C         141.7641  141.8188  167.7914 C.ar    1  UNL1        0.1157
     13 C         140.8820  142.6839  168.6420 C.ar    1  UNL1        0.0210
     14 C         140.4744  142.2235  170.0102 C.ar    1  UNL1        0.0150
     15 C         139.5923  143.0887  170.8608 C.3     1  UNL1        0.0343
     16 C         140.9490  140.8981  170.5278 C.ar    1  UNL1        0.1487
     17 O         140.5414  140.4377  171.8960 O.3     1  UNL1       -0.5043
     18 C         141.8311  140.0330  169.6772 C.ar    1  UNL1        0.1351
     19 N         142.2386  140.4934  168.3090 N.ar    1  UNL1       -0.2376
     20 H         139.9904  140.9781  172.4273 H       1  UNL1        0.2922
     21 C         139.1258  144.2299  165.6839 C.3     1  UNL1        0.0774
     22 C         139.7577  142.8894  165.4510 C.2     1  UNL1        0.1766
     23 O         138.8977  141.6673  165.3216 O.2     1  UNL1       -0.2912
     24 C         140.2796  143.9339  162.4616 C.3     1  UNL1        0.1023
     25 N         139.4653  142.8962  161.7475 N.3     1  UNL1       -0.2688
     26 C         139.6783  142.0215  160.5477 C.3     1  UNL1        0.0738
     27 C         138.3136  141.4285  160.7376 C.3     1  UNL1        0.0347
     28 C         138.1006  142.3031  161.9374 C.3     1  UNL1        0.0738
@<TRIPOS>BOND
     1    21    22    1
     2    22    23    2
     3    22     1    1
     4     1     2   ar
     5     2    12    1
     6    12    13   ar
     7    13    14   ar
     8    14    15    1
     9    14    16   ar
    10    16    17    1
    11    16    18   ar
    12    18    19   ar
    13     2     3   ar
    14     3     4   ar
    15     4     5   ar
    16     5     6   ar
    17     6     7   ar
    18     7     8    1
    19     7     9   ar
    20     9    24    1
    21    24    25    1
    22    25    26    1
    23    26    27    1
    24    27    28    1
    25     9    10   ar
    26    10     1   ar
    27    19    12   ar
    28    10     4   ar
    29    28    25    1
    30    17    20    1
    31     8    11    1
