@<TRIPOS>MOLECULE
*****
 28 31 0 0 0
SMALL
GASTEIGER

@<TRIPOS>ATOM
      1 C         140.7528  141.9903  169.5384 C.ar    1  UNL1        0.0783
      2 C         139.4987  141.3495  170.0545 C.ar    1  UNL1        0.1053
      3 N         138.8360  140.2575  169.2684 N.ar    1  UNL1       -0.2292
      4 C         139.4275  139.8061  167.9658 C.ar    1  UNL1        0.1289
      5 C         140.6817  140.4469  167.4496 C.ar    1  UNL1        0.0381
      6 C         141.4903  140.2134  166.2081 C.ar    1  UNL1        0.0102
      7 C         142.6528  141.1612  166.2270 C.ar    1  UNL1        0.0355
      8 S         142.5625  141.9805  167.4802 S.2     1  UNL1       -0.0861
      9 C         141.3443  141.5390  168.2359 C.ar    1  UNL1        0.0380
     10 N         142.6278  142.7796  171.1544 N.am    1  UNL1       -0.3253
     11 C         141.4154  143.0824  170.3246 C.2     1  UNL1        0.2448
     12 O         140.8657  144.4775  170.2811 O.2     1  UNL1       -0.2703
     13 H         143.0627  143.4964  171.6704 H       1  UNL1        0.1453
     14 H         142.9886  141.8641  171.1829 H       1  UNL1        0.1453
     15 C         143.7184  141.2706  165.1770 C.ar    1  UNL1        0.0355
     16 C         144.4350  142.5257  164.7755 C.ar    1  UNL1        0.0075
     17 C         145.4140  142.1749  163.6945 C.ar    1  UNL1        0.0075
     18 C         145.3025  140.7030  163.4279 C.ar    1  UNL1        0.0355
     19 S         144.2545  140.1441  164.3442 S.2     1  UNL1       -0.0859
     20 N         138.7648  138.7139  167.1796 N.pl3   1  UNL1       -0.3183
     21 H         138.4326  137.9089  167.6388 H       1  UNL1        0.1482
     22 C         138.6082  138.8483  165.6939 C.3     1  UNL1        0.0861
     23 C         139.0045  137.7167  164.7926 C.3     1  UNL1        0.0224
     24 C         138.8479  137.8510  163.3069 C.3     1  UNL1        0.0188
     25 C         138.2951  139.1171  162.7225 C.3     1  UNL1        0.0687
     26 N         137.8989  140.2487  163.6238 N.3     1  UNL1       -0.2961
     27 C         138.0555  140.1144  165.1095 C.3     1  UNL1        0.0883
     28 H         136.9115  140.4338  163.4473 H       1  UNL1        0.1233
@<TRIPOS>BOND
     1    10    11   am
     2    11    12    2
     3    11     1    1
     4     1     2   ar
     5     2     3   ar
     6     3     4   ar
     7     4    20    1
     8    22    20    1
     9    22    23    1
    10    23    24    1
    11    24    25    1
    12    25    26    1
    13    26    27    1
    14     4     5   ar
    15     5     6   ar
    16     6     7   ar
    17     7    15    1
    18    15    16   ar
    19    16    17   ar
    20    17    18   ar
    21    18    19   ar
    22     7     8   ar
    23     8     9   ar
    24     9     1   ar
    25    27    22    1
    26     9     5   ar
    27    19    15   ar
    28    10    13    1
    29    10    14    1
    30    20    21    1
    31    26    28    1
@<TRIPOS>MOLECULE
*****
 28 31 0 0 0
SMALL
GASTEIGER

@<TRIPOS>ATOM
      1 C         141.3618  140.7677  169.5283 C.ar    1  UNL1        0.0783
      2 C         142.1615  139.5381  169.8422 C.ar    1  UNL1        0.1053
      3 N         142.9162  138.8358  168.7527 N.ar    1  UNL1       -0.2292
      4 C         142.8712  139.3631  167.3491 C.ar    1  UNL1        0.1289
      5 C         142.0715  140.5927  167.0352 C.ar    1  UNL1        0.0381
      6 C         141.8409  141.3404  165.7554 C.ar    1  UNL1        0.0102
      7 C         140.9437  142.5048  166.0541 C.ar    1  UNL1        0.0355
      8 S         140.6198  142.4768  167.5185 S.2     1  UNL1       -0.0861
      9 C         141.3168  141.2950  168.1248 C.ar    1  UNL1        0.0380
     10 N         139.1075  141.4927  170.5972 N.am    1  UNL1       -0.3253
     11 C         140.6072  141.4700  170.6180 C.2     1  UNL1        0.2448
     12 O         141.3522  142.1497  171.7285 O.2     1  UNL1       -0.2703
     13 H         138.6122  141.9536  171.3123 H       1  UNL1        0.1453
     14 H         138.6185  141.0466  169.8684 H       1  UNL1        0.1453
     15 C         140.4560  143.5192  165.0626 C.ar    1  UNL1        0.0355
     16 C         139.0503  144.0284  164.9411 C.ar    1  UNL1        0.0075
     17 C         139.0139  145.0263  163.8219 C.ar    1  UNL1        0.0075
     18 C         140.3971  145.1339  163.2515 C.ar    1  UNL1        0.0355
     19 S         141.2884  144.2024  164.0184 S.2     1  UNL1       -0.0859
     20 N         143.6259  138.6608  166.2595 N.pl3   1  UNL1       -0.3183
     21 H         144.5674  138.4077  166.3970 H       1  UNL1        0.1482
     22 C         142.9463  138.3439  164.9605 C.3     1  UNL1        0.0861
     23 C         141.6854  137.5314  164.9524 C.3     1  UNL1        0.0224
     24 C         141.0056  137.2145  163.6534 C.3     1  UNL1        0.0188
     25 C         141.5868  137.7101  162.3624 C.3     1  UNL1        0.0687
     26 N         142.8476  138.5226  162.3704 N.3     1  UNL1       -0.2961
     27 C         143.5274  138.8395  163.6695 C.3     1  UNL1        0.0883
     28 H         142.6258  139.4149  161.9289 H       1  UNL1        0.1233
@<TRIPOS>BOND
     1    10    11   am
     2    11    12    2
     3    11     1    1
     4     1     2   ar
     5     2     3   ar
     6     3     4   ar
     7     4    20    1
     8    22    20    1
     9    22    23    1
    10    23    24    1
    11    24    25    1
    12    25    26    1
    13    26    27    1
    14     4     5   ar
    15     5     6   ar
    16     6     7   ar
    17     7    15    1
    18    15    16   ar
    19    16    17   ar
    20    17    18   ar
    21    18    19   ar
    22     7     8   ar
    23     8     9   ar
    24     9     1   ar
    25    27    22    1
    26     9     5   ar
    27    19    15   ar
    28    10    13    1
    29    10    14    1
    30    20    21    1
    31    26    28    1
@<TRIPOS>MOLECULE
*****
 28 31 0 0 0
SMALL
GASTEIGER

@<TRIPOS>ATOM
      1 C         139.2154  138.2658  164.5531 C.ar    1  UNL1        0.0783
      2 C         138.4765  137.4725  165.5897 C.ar    1  UNL1        0.1053
      3 N         138.2876  138.0320  166.9685 N.ar    1  UNL1       -0.2292
      4 C         138.8376  139.3849  167.3108 C.ar    1  UNL1        0.1289
      5 C         139.5764  140.1783  166.2742 C.ar    1  UNL1        0.0381
      6 C         140.2258  141.5297  166.3190 C.ar    1  UNL1        0.0102
      7 C         140.8160  141.8054  164.9678 C.ar    1  UNL1        0.0355
      8 S         140.5314  140.6244  164.0879 S.2     1  UNL1       -0.0861
      9 C         139.7653  139.6187  164.8953 C.ar    1  UNL1        0.0380
     10 N         138.2696  137.7296  162.1934 N.am    1  UNL1       -0.3253
     11 C         139.4042  137.7063  163.1742 C.2     1  UNL1        0.2448
     12 O         140.7279  137.1234  162.7762 O.2     1  UNL1       -0.2703
     13 H         138.3936  137.3623  161.2885 H       1  UNL1        0.1453
     14 H         137.4009  138.1121  162.4547 H       1  UNL1        0.1453
     15 C         141.5601  143.0445  164.5669 C.ar    1  UNL1        0.0355
     16 C         140.9446  144.3308  164.1013 C.ar    1  UNL1        0.0075
     17 C         142.0544  145.2962  163.8078 C.ar    1  UNL1        0.0075
     18 C         143.3559  144.6067  164.0921 C.ar    1  UNL1        0.0355
     19 S         143.0504  143.2150  164.5612 S.2     1  UNL1       -0.0859
     20 N         138.6486  139.9444  168.6897 N.pl3   1  UNL1       -0.3183
     21 H         137.7538  139.9501  169.1003 H       1  UNL1        0.1482
     22 C         139.8230  140.4953  169.4430 C.3     1  UNL1        0.0861
     23 C         141.0943  139.7043  169.5327 C.3     1  UNL1        0.0224
     24 C         142.2687  140.2551  170.2859 C.3     1  UNL1        0.0188
     25 C         142.1717  141.5968  170.9495 C.3     1  UNL1        0.0687
     26 N         140.9004  142.3877  170.8599 N.3     1  UNL1       -0.2961
     27 C         139.7260  141.8370  170.1066 C.3     1  UNL1        0.0883
     28 H         141.1381  143.2788  170.4241 H       1  UNL1        0.1233
@<TRIPOS>BOND
     1    10    11   am
     2    11    12    2
     3    11     1    1
     4     1     2   ar
     5     2     3   ar
     6     3     4   ar
     7     4    20    1
     8    22    20    1
     9    22    23    1
    10    23    24    1
    11    24    25    1
    12    25    26    1
    13    26    27    1
    14     4     5   ar
    15     5     6   ar
    16     6     7   ar
    17     7    15    1
    18    15    16   ar
    19    16    17   ar
    20    17    18   ar
    21    18    19   ar
    22     7     8   ar
    23     8     9   ar
    24     9     1   ar
    25    27    22    1
    26     9     5   ar
    27    19    15   ar
    28    10    13    1
    29    10    14    1
    30    20    21    1
    31    26    28    1
@<TRIPOS>MOLECULE
*****
 28 31 0 0 0
SMALL
GASTEIGER

@<TRIPOS>ATOM
      1 C         141.2483  140.9918  169.1800 C.ar    1  UNL1        0.0783
      2 C         140.0797  140.1358  169.5693 C.ar    1  UNL1        0.1053
      3 N         139.1094  139.6709  168.5243 N.ar    1  UNL1       -0.2292
      4 C         139.3075  140.0621  167.0897 C.ar    1  UNL1        0.1289
      5 C         140.4761  140.9181  166.7004 C.ar    1  UNL1        0.0381
      6 C         140.9267  141.4593  165.3760 C.ar    1  UNL1        0.0102
      7 C         142.1755  142.2587  165.6026 C.ar    1  UNL1        0.0355
      8 S         142.4968  142.2115  167.0670 S.2     1  UNL1       -0.0861
      9 C         141.4465  141.3830  167.7455 C.ar    1  UNL1        0.0380
     10 N         143.5065  140.7169  170.4348 N.am    1  UNL1       -0.3253
     11 C         142.2186  141.4567  170.2251 C.2     1  UNL1        0.2448
     12 O         141.9011  142.6615  171.0605 O.2     1  UNL1       -0.2703
     13 H         144.1434  141.0221  171.1208 H       1  UNL1        0.1453
     14 H         143.7150  139.9263  169.8865 H       1  UNL1        0.1453
     15 C         142.9646  142.9788  164.5496 C.ar    1  UNL1        0.0355
     16 C         142.8825  144.4427  164.2333 C.ar    1  UNL1        0.0075
     17 C         143.8415  144.7301  163.1162 C.ar    1  UNL1        0.0075
     18 C         144.5164  143.4437  162.7422 C.ar    1  UNL1        0.0355
     19 S         143.9744  142.3613  163.6281 S.2     1  UNL1       -0.0859
     20 N         138.3371  139.5971  166.0446 N.pl3   1  UNL1       -0.3183
     21 H         137.3685  139.6745  166.2031 H       1  UNL1        0.1482
     22 C         138.8424  139.0143  164.7582 C.3     1  UNL1        0.0861
     23 C         139.8376  137.8922  164.7831 C.3     1  UNL1        0.0224
     24 C         140.3430  137.3093  163.4968 C.3     1  UNL1        0.0188
     25 C         139.8532  137.8484  162.1855 C.3     1  UNL1        0.0687
     26 N         138.8580  138.9704  162.1606 N.3     1  UNL1       -0.2961
     27 C         138.3526  139.5534  163.4470 C.3     1  UNL1        0.0883
     28 H         138.0426  138.6295  161.6514 H       1  UNL1        0.1233
@<TRIPOS>BOND
     1    10    11   am
     2    11    12    2
     3    11     1    1
     4     1     2   ar
     5     2     3   ar
     6     3     4   ar
     7     4    20    1
     8    22    20    1
     9    22    23    1
    10    23    24    1
    11    24    25    1
    12    25    26    1
    13    26    27    1
    14     4     5   ar
    15     5     6   ar
    16     6     7   ar
    17     7    15    1
    18    15    16   ar
    19    16    17   ar
    20    17    18   ar
    21    18    19   ar
    22     7     8   ar
    23     8     9   ar
    24     9     1   ar
    25    27    22    1
    26     9     5   ar
    27    19    15   ar
    28    10    13    1
    29    10    14    1
    30    20    21    1
    31    26    28    1
@<TRIPOS>MOLECULE
*****
 28 31 0 0 0
SMALL
GASTEIGER

@<TRIPOS>ATOM
      1 C         138.4350  139.8846  165.2527 C.ar    1  UNL1        0.0783
      2 C         137.7283  140.2919  163.9939 C.ar    1  UNL1        0.1053
      3 N         137.9393  141.6638  163.4256 N.ar    1  UNL1       -0.2292
      4 C         138.8571  142.6287  164.1161 C.ar    1  UNL1        0.1289
      5 C         139.5639  142.2214  165.3750 C.ar    1  UNL1        0.0381
      6 C         140.5211  142.9516  166.2697 C.ar    1  UNL1        0.0102
      7 C         140.9016  142.0307  167.3910 C.ar    1  UNL1        0.0355
      8 S         140.1796  140.7315  167.1892 S.2     1  UNL1       -0.0861
      9 C         139.3528  140.8494  165.9432 C.ar    1  UNL1        0.0380
     10 N         138.9146  137.3316  165.2059 N.am    1  UNL1       -0.3253
     11 C         138.2239  138.5125  165.8210 C.2     1  UNL1        0.2448
     12 O         137.3221  138.3215  167.0045 O.2     1  UNL1       -0.2703
     13 H         138.7760  136.4311  165.5789 H       1  UNL1        0.1453
     14 H         139.5064  137.4570  164.4292 H       1  UNL1        0.1453
     15 C         141.8396  142.3526  168.5164 C.ar    1  UNL1        0.0355
     16 C         143.3105  142.0605  168.5492 C.ar    1  UNL1        0.0075
     17 C         143.8513  142.5504  169.8597 C.ar    1  UNL1        0.0075
     18 C         142.7146  143.1453  170.6370 C.ar    1  UNL1        0.0355
     19 S         141.4713  143.0230  169.8067 S.2     1  UNL1       -0.0859
     20 N         139.0681  144.0007  163.5478 N.pl3   1  UNL1       -0.3183
     21 H         138.6466  144.7809  163.9755 H       1  UNL1        0.1482
     22 C         139.9214  144.1841  162.3278 C.3     1  UNL1        0.0861
     23 C         139.4279  143.7171  160.9905 C.3     1  UNL1        0.0224
     24 C         140.2811  143.9004  159.7704 C.3     1  UNL1        0.0188
     25 C         141.6277  144.5507  159.8877 C.3     1  UNL1        0.0687
     26 N         142.1211  145.0178  161.2251 N.3     1  UNL1       -0.2961
     27 C         141.2679  144.8344  162.4451 C.3     1  UNL1        0.0883
     28 H         142.3014  146.0180  161.1395 H       1  UNL1        0.1233
@<TRIPOS>BOND
     1    10    11   am
     2    11    12    2
     3    11     1    1
     4     1     2   ar
     5     2     3   ar
     6     3     4   ar
     7     4    20    1
     8    22    20    1
     9    22    23    1
    10    23    24    1
    11    24    25    1
    12    25    26    1
    13    26    27    1
    14     4     5   ar
    15     5     6   ar
    16     6     7   ar
    17     7    15    1
    18    15    16   ar
    19    16    17   ar
    20    17    18   ar
    21    18    19   ar
    22     7     8   ar
    23     8     9   ar
    24     9     1   ar
    25    27    22    1
    26     9     5   ar
    27    19    15   ar
    28    10    13    1
    29    10    14    1
    30    20    21    1
    31    26    28    1
@<TRIPOS>MOLECULE
*****
 28 31 0 0 0
SMALL
GASTEIGER

@<TRIPOS>ATOM
      1 C         141.5099  140.0584  169.0575 C.ar    1  UNL1        0.0783
      2 C         142.6447  139.0910  169.2199 C.ar    1  UNL1        0.1053
      3 N         143.3418  138.5428  168.0103 N.ar    1  UNL1       -0.2292
      4 C         142.9042  138.9619  166.6381 C.ar    1  UNL1        0.1289
      5 C         141.7695  139.9294  166.4757 C.ar    1  UNL1        0.0381
      6 C         141.1216  140.5213  165.2592 C.ar    1  UNL1        0.0102
      7 C         140.0240  141.4354  165.7171 C.ar    1  UNL1        0.0355
      8 S         139.9935  141.4084  167.2166 S.2     1  UNL1       -0.0861
      9 C         141.0723  140.4776  167.6854 C.ar    1  UNL1        0.0380
     10 N         139.9428  139.7131  171.1008 N.am    1  UNL1       -0.3253
     11 C         140.8127  140.6066  170.2672 C.2     1  UNL1        0.2448
     12 O         140.9855  142.0485  170.6434 O.2     1  UNL1       -0.2703
     13 H         139.4852  140.0729  171.8948 H       1  UNL1        0.1453
     14 H         139.8294  138.7668  170.8539 H       1  UNL1        0.1453
     15 C         139.1162  142.2360  164.8311 C.ar    1  UNL1        0.0355
     16 C         138.7697  143.6852  165.0031 C.ar    1  UNL1        0.0075
     17 C         137.8348  144.0728  163.8959 C.ar    1  UNL1        0.0075
     18 C         137.6036  142.8631  163.0396 C.ar    1  UNL1        0.0355
     19 S         138.3956  141.7279  163.6176 S.2     1  UNL1       -0.0859
     20 N         143.6015  138.4136  165.4284 N.pl3   1  UNL1       -0.3183
     21 H         143.7777  137.4476  165.3574 H       1  UNL1        0.1482
     22 C         144.0302  139.3371  164.3269 C.3     1  UNL1        0.0861
     23 C         144.8428  140.5572  164.6450 C.3     1  UNL1        0.0224
     24 C         145.2716  141.4808  163.5436 C.3     1  UNL1        0.0188
     25 C         144.8878  141.1843  162.1241 C.3     1  UNL1        0.0687
     26 N         144.0752  139.9642  161.8061 N.3     1  UNL1       -0.2961
     27 C         143.6464  139.0406  162.9075 C.3     1  UNL1        0.0883
     28 H         144.6245  139.4070  161.1517 H       1  UNL1        0.1233
@<TRIPOS>BOND
     1    10    11   am
     2    11    12    2
     3    11     1    1
     4     1     2   ar
     5     2     3   ar
     6     3     4   ar
     7     4    20    1
     8    22    20    1
     9    22    23    1
    10    23    24    1
    11    24    25    1
    12    25    26    1
    13    26    27    1
    14     4     5   ar
    15     5     6   ar
    16     6     7   ar
    17     7    15    1
    18    15    16   ar
    19    16    17   ar
    20    17    18   ar
    21    18    19   ar
    22     7     8   ar
    23     8     9   ar
    24     9     1   ar
    25    27    22    1
    26     9     5   ar
    27    19    15   ar
    28    10    13    1
    29    10    14    1
    30    20    21    1
    31    26    28    1
@<TRIPOS>MOLECULE
*****
 28 31 0 0 0
SMALL
GASTEIGER

@<TRIPOS>ATOM
      1 C         141.8423  139.1092  164.2892 C.ar    1  UNL1        0.0783
      2 C         142.4370  138.5708  165.5567 C.ar    1  UNL1        0.1053
      3 N         142.8569  139.5116  166.6468 N.ar    1  UNL1       -0.2292
      4 C         142.6822  140.9909  166.4696 C.ar    1  UNL1        0.1289
      5 C         142.0875  141.5292  165.2021 C.ar    1  UNL1        0.0381
      6 C         141.7948  142.9278  164.7457 C.ar    1  UNL1        0.0102
      7 C         141.1939  142.8513  163.3735 C.ar    1  UNL1        0.0355
      8 S         141.1153  141.4055  162.9818 S.2     1  UNL1       -0.0861
      9 C         141.6676  140.5884  164.1119 C.ar    1  UNL1        0.0380
     10 N         142.4442  137.6168  162.2495 N.am    1  UNL1       -0.3253
     11 C         141.4224  138.1683  163.1990 C.2     1  UNL1        0.2448
     12 O         139.9805  137.7791  163.0584 O.2     1  UNL1       -0.2703
     13 H         142.1686  136.9993  161.5340 H       1  UNL1        0.1453
     14 H         143.3905  137.8722  162.3418 H       1  UNL1        0.1453
     15 C         140.7497  144.0161  162.5393 C.ar    1  UNL1        0.0355
     16 C         139.9353  145.1822  163.0160 C.ar    1  UNL1        0.0075
     17 C         139.7241  146.1062  161.8534 C.ar    1  UNL1        0.0075
     18 C         140.4079  145.5112  160.6582 C.ar    1  UNL1        0.0355
     19 S         141.0418  144.2194  161.0822 S.2     1  UNL1       -0.0859
     20 N         143.1022  141.9316  167.5598 N.pl3   1  UNL1       -0.3183
     21 H         143.9002  142.4961  167.4426 H       1  UNL1        0.1482
     22 C         142.3062  142.0124  168.8286 C.3     1  UNL1        0.0861
     23 C         140.9853  142.7229  168.8413 C.3     1  UNL1        0.0224
     24 C         140.1892  142.8037  170.1101 C.3     1  UNL1        0.0188
     25 C         140.7142  142.1740  171.3662 C.3     1  UNL1        0.0687
     26 N         142.0352  141.4634  171.3535 N.3     1  UNL1       -0.2961
     27 C         142.8312  141.3826  170.0847 C.3     1  UNL1        0.0883
     28 H         141.8564  140.5041  171.6505 H       1  UNL1        0.1233
@<TRIPOS>BOND
     1    10    11   am
     2    11    12    2
     3    11     1    1
     4     1     2   ar
     5     2     3   ar
     6     3     4   ar
     7     4    20    1
     8    22    20    1
     9    22    23    1
    10    23    24    1
    11    24    25    1
    12    25    26    1
    13    26    27    1
    14     4     5   ar
    15     5     6   ar
    16     6     7   ar
    17     7    15    1
    18    15    16   ar
    19    16    17   ar
    20    17    18   ar
    21    18    19   ar
    22     7     8   ar
    23     8     9   ar
    24     9     1   ar
    25    27    22    1
    26     9     5   ar
    27    19    15   ar
    28    10    13    1
    29    10    14    1
    30    20    21    1
    31    26    28    1
@<TRIPOS>MOLECULE
*****
 28 31 0 0 0
SMALL
GASTEIGER

@<TRIPOS>ATOM
      1 C         140.3201  141.8910  168.7980 C.ar    1  UNL1        0.0783
      2 C         140.0057  140.5280  169.3397 C.ar    1  UNL1        0.1053
      3 N         139.4517  139.4698  168.4324 N.ar    1  UNL1       -0.2292
      4 C         139.2120  139.7745  166.9833 C.ar    1  UNL1        0.1289
      5 C         139.5264  141.1375  166.4416 C.ar    1  UNL1        0.0381
      6 C         139.3962  141.7262  165.0681 C.ar    1  UNL1        0.0102
      7 C         139.8698  143.1482  165.1266 C.ar    1  UNL1        0.0355
      8 S         140.2926  143.4385  166.5362 S.2     1  UNL1       -0.0861
      9 C         140.0804  142.1957  167.3489 C.ar    1  UNL1        0.0380
     10 N         142.3432  142.9854  170.0060 N.am    1  UNL1       -0.3253
     11 C         140.8741  142.9492  169.7053 C.2     1  UNL1        0.2448
     12 O         139.9589  143.9714  170.3119 O.2     1  UNL1       -0.2703
     13 H         142.7068  143.6799  170.6015 H       1  UNL1        0.1453
     14 H         142.9438  142.3145  169.6079 H       1  UNL1        0.1453
     15 C         139.9129  144.1111  163.9772 C.ar    1  UNL1        0.0355
     16 C         141.1306  144.8262  163.4714 C.ar    1  UNL1        0.0075
     17 C         140.7162  145.6850  162.3134 C.ar    1  UNL1        0.0075
     18 C         139.2424  145.5007  162.1036 C.ar    1  UNL1        0.0355
     19 S         138.7459  144.5280  163.1320 S.2     1  UNL1       -0.0859
     20 N         138.6580  138.7162  166.0761 N.pl3   1  UNL1       -0.3183
     21 H         137.7992  138.2848  166.2898 H       1  UNL1        0.1482
     22 C         139.4123  138.3152  164.8432 C.3     1  UNL1        0.0861
     23 C         138.7348  138.3488  163.5053 C.3     1  UNL1        0.0224
     24 C         139.4891  137.9478  162.2724 C.3     1  UNL1        0.0188
     25 C         140.9209  137.5132  162.3773 C.3     1  UNL1        0.0687
     26 N         141.5984  137.4796  163.7151 N.3     1  UNL1       -0.2961
     27 C         140.8441  137.8806  164.9481 C.3     1  UNL1        0.0883
     28 H         142.4076  138.0974  163.6510 H       1  UNL1        0.1233
@<TRIPOS>BOND
     1    10    11   am
     2    11    12    2
     3    11     1    1
     4     1     2   ar
     5     2     3   ar
     6     3     4   ar
     7     4    20    1
     8    22    20    1
     9    22    23    1
    10    23    24    1
    11    24    25    1
    12    25    26    1
    13    26    27    1
    14     4     5   ar
    15     5     6   ar
    16     6     7   ar
    17     7    15    1
    18    15    16   ar
    19    16    17   ar
    20    17    18   ar
    21    18    19   ar
    22     7     8   ar
    23     8     9   ar
    24     9     1   ar
    25    27    22    1
    26     9     5   ar
    27    19    15   ar
    28    10    13    1
    29    10    14    1
    30    20    21    1
    31    26    28    1
@<TRIPOS>MOLECULE
*****
 28 31 0 0 0
SMALL
GASTEIGER

@<TRIPOS>ATOM
      1 C         143.4080  143.1389  163.9560 C.ar    1  UNL1        0.0783
      2 C         144.1391  143.3248  165.2524 C.ar    1  UNL1        0.1053
      3 N         143.7190  142.5527  166.4678 N.ar    1  UNL1       -0.2292
      4 C         142.5676  141.5946  166.3868 C.ar    1  UNL1        0.1289
      5 C         141.8364  141.4088  165.0904 C.ar    1  UNL1        0.0381
      6 C         140.6729  140.5420  164.7097 C.ar    1  UNL1        0.0102
      7 C         140.3740  140.7785  163.2589 C.ar    1  UNL1        0.0355
      8 S         141.3527  141.7914  162.7430 S.2     1  UNL1       -0.0861
      9 C         142.2566  142.1809  163.8750 C.ar    1  UNL1        0.0380
     10 N         143.3459  145.3174  162.5416 N.am    1  UNL1       -0.3253
     11 C         143.8281  143.9110  162.7405 C.2     1  UNL1        0.2448
     12 O         144.7306  143.2768  161.7239 O.2     1  UNL1       -0.2703
     13 H         143.6216  145.8241  161.7439 H       1  UNL1        0.1453
     14 H         142.7535  145.7337  163.2088 H       1  UNL1        0.1453
     15 C         139.2871  140.1181  162.4636 C.ar    1  UNL1        0.0355
     16 C         138.7534  138.7330  162.6802 C.ar    1  UNL1        0.0075
     17 C         137.6796  138.4856  161.6626 C.ar    1  UNL1        0.0075
     18 C         137.5494  139.7178  160.8170 C.ar    1  UNL1        0.0355
     19 S         138.5430  140.7267  161.3122 S.2     1  UNL1       -0.0859
     20 N         142.1475  140.8225  167.6024 N.pl3   1  UNL1       -0.3183
     21 H         142.4179  139.8815  167.7055 H       1  UNL1        0.1482
     22 C         141.3155  141.4842  168.6606 C.3     1  UNL1        0.0861
     23 C         141.2119  142.9799  168.7069 C.3     1  UNL1        0.0224
     24 C         140.3799  143.6416  169.7652 C.3     1  UNL1        0.0188
     25 C         139.6516  142.8076  170.7771 C.3     1  UNL1        0.0687
     26 N         139.7552  141.3119  170.7308 N.3     1  UNL1       -0.2961
     27 C         140.5872  140.6502  169.6726 C.3     1  UNL1        0.0883
     28 H         138.8059  140.9541  170.6255 H       1  UNL1        0.1233
@<TRIPOS>BOND
     1    10    11   am
     2    11    12    2
     3    11     1    1
     4     1     2   ar
     5     2     3   ar
     6     3     4   ar
     7     4    20    1
     8    22    20    1
     9    22    23    1
    10    23    24    1
    11    24    25    1
    12    25    26    1
    13    26    27    1
    14     4     5   ar
    15     5     6   ar
    16     6     7   ar
    17     7    15    1
    18    15    16   ar
    19    16    17   ar
    20    17    18   ar
    21    18    19   ar
    22     7     8   ar
    23     8     9   ar
    24     9     1   ar
    25    27    22    1
    26     9     5   ar
    27    19    15   ar
    28    10    13    1
    29    10    14    1
    30    20    21    1
    31    26    28    1
