@<TRIPOS>MOLECULE
*****
 35 39 0 0 0
SMALL
GASTEIGER

@<TRIPOS>ATOM
      1 C         139.8329  140.4170  168.6238 C.3     1  UNL1        0.0212
      2 C         140.6948  139.8419  169.7085 C.3     1  UNL1        0.0488
      3 C         142.1872  139.8379  169.5577 C.3     1  UNL1        0.2054
      4 O         142.8254  139.0772  168.4334 O.3     1  UNL1       -0.4755
      5 C         142.8230  140.7891  164.2718 C.ar    1  UNL1       -0.0059
      6 C         142.8101  139.3025  164.4712 C.ar    1  UNL1        0.0002
      7 C         142.8109  138.7319  165.8584 C.ar    1  UNL1        0.0366
      8 C         142.8246  139.6478  167.0462 C.ar    1  UNL1        0.1385
      9 C         142.8374  141.1345  166.8468 C.ar    1  UNL1        0.0366
     10 C         142.8366  141.7051  165.4595 C.ar    1  UNL1        0.0002
     11 C         142.8222  141.3597  162.8846 C.3     1  UNL1        0.0992
     12 C         139.6944  146.3388  161.6904 C.3     1  UNL1        0.0897
     13 N         140.4763  145.0941  161.9889 N.3     1  UNL1       -0.2691
     14 C         141.6420  145.1486  162.9314 C.3     1  UNL1        0.0897
     15 C         142.4240  143.9037  163.2299 C.3     1  UNL1        0.0899
     16 N         142.0402  142.6044  162.5860 N.3     1  UNL1       -0.2665
     17 C         140.8745  142.5499  161.6436 C.3     1  UNL1        0.0899
     18 C         140.0926  143.7947  161.3451 C.3     1  UNL1        0.0897
     19 C         138.8903  139.5302  167.8655 C.3     1  UNL1        0.0722
     20 N         138.9419  139.4882  166.3670 N.3     1  UNL1       -0.2727
     21 C         139.0937  140.7597  165.5858 C.3     1  UNL1        0.0725
     22 C         139.1452  140.7178  164.0873 C.3     1  UNL1        0.0234
     23 C         139.0449  139.4042  163.3699 C.3     1  UNL1        0.0464
     24 C         138.8931  138.1328  164.1511 C.3     1  UNL1        0.0234
     25 C         138.8416  138.1747  165.6496 C.3     1  UNL1        0.0725
     26 C         139.0965  139.3622  161.8714 C.ar    1  UNL1        0.1003
     27 N         138.0138  139.8185  160.9388 N.ar    1  UNL1       -0.0814
     28 O         138.4880  139.5948  159.5334 O.2     1  UNL1       -0.3536
     29 C         139.8637  139.0003  159.5974 C.ar    1  UNL1        0.1787
     30 C         140.8225  138.5713  158.5266 C.ar    1  UNL1        0.0698
     31 C         142.1573  137.9986  158.9008 C.ar    1  UNL1        0.1433
     32 F         143.1162  137.5695  157.8300 F       1  UNL1       -0.2041
     33 C         142.5334  137.8548  160.3457 C.ar    1  UNL1        0.0299
     34 C         141.5746  138.2838  161.4165 C.ar    1  UNL1        0.0067
     35 C         140.2398  138.8565  161.0424 C.ar    1  UNL1        0.0540
@<TRIPOS>BOND
     1    12    13    1
     2    13    14    1
     3    14    15    1
     4    15    16    1
     5    16    11    1
     6    11     5    1
     7     5     6   ar
     8     6     7   ar
     9     7     8   ar
    10     8     4    1
    11     4     3    1
    12     3     2    1
    13     2     1    1
    14     1    19    1
    15    19    20    1
    16    20    21    1
    17    21    22    1
    18    22    23    1
    19    23    26    1
    20    26    27   ar
    21    27    28   ar
    22    28    29   ar
    23    29    30   ar
    24    30    31   ar
    25    31    32    1
    26    31    33   ar
    27    33    34   ar
    28    34    35   ar
    29    23    24    1
    30    24    25    1
    31     8     9   ar
    32     9    10   ar
    33    16    17    1
    34    17    18    1
    35    18    13    1
    36    10     5   ar
    37    25    20    1
    38    35    26   ar
    39    35    29   ar
@<TRIPOS>MOLECULE
*****
 35 39 0 0 0
SMALL
GASTEIGER

@<TRIPOS>ATOM
      1 C         138.8559  138.1407  165.1054 C.3     1  UNL1        0.0212
      2 C         138.1593  139.1291  165.9931 C.3     1  UNL1        0.0488
      3 C         138.4290  139.1321  167.4686 C.3     1  UNL1        0.2054
      4 O         139.3757  140.1365  168.0560 O.3     1  UNL1       -0.4755
      5 C         142.8439  141.6513  165.6215 C.ar    1  UNL1       -0.0059
      6 C         141.6278  142.5091  165.8090 C.ar    1  UNL1        0.0002
      7 C         140.4717  142.0041  166.6204 C.ar    1  UNL1        0.0366
      8 C         140.5318  140.6414  167.2445 C.ar    1  UNL1        0.1385
      9 C         141.7480  139.7837  167.0571 C.ar    1  UNL1        0.0366
     10 C         142.9040  140.2886  166.2456 C.ar    1  UNL1        0.0002
     11 C         144.0000  142.1563  164.8100 C.3     1  UNL1        0.0992
     12 C         144.1514  141.2052  158.8878 C.3     1  UNL1        0.0897
     13 N         144.1135  141.4430  160.3684 N.3     1  UNL1       -0.2691
     14 C         144.0860  142.8444  160.9025 C.3     1  UNL1        0.0897
     15 C         144.0481  143.0821  162.3831 C.3     1  UNL1        0.0899
     16 N         144.0378  141.9185  163.3295 N.3     1  UNL1       -0.2665
     17 C         144.0654  140.5170  162.7954 C.3     1  UNL1        0.0899
     18 C         144.1032  140.2793  161.3149 C.3     1  UNL1        0.0897
     19 C         138.7643  138.2772  163.6144 C.3     1  UNL1        0.0722
     20 N         138.9857  139.6128  162.9685 N.3     1  UNL1       -0.2727
     21 C         140.3172  140.2928  163.0894 C.3     1  UNL1        0.0725
     22 C         140.5387  141.6284  162.4434 C.3     1  UNL1        0.0234
     23 C         139.4285  142.2839  161.6766 C.3     1  UNL1        0.0464
     24 C         138.0971  141.6039  161.5558 C.3     1  UNL1        0.0234
     25 C         137.8757  140.2683  162.2017 C.3     1  UNL1        0.0725
     26 C         139.6500  143.6195  161.0307 C.ar    1  UNL1        0.1003
     27 N         139.2250  144.9476  161.5835 N.ar    1  UNL1       -0.0814
     28 O         139.6476  146.0103  160.6130 O.2     1  UNL1       -0.3536
     29 C         140.3338  145.3391  159.4603 C.ar    1  UNL1        0.1787
     30 C         140.9575  145.8824  158.2090 C.ar    1  UNL1        0.0698
     31 C         141.5826  144.9482  157.2159 C.ar    1  UNL1        0.1433
     32 F         142.2063  145.4915  155.9646 F       1  UNL1       -0.2041
     33 C         141.5840  143.4705  157.4741 C.ar    1  UNL1        0.0299
     34 C         140.9604  142.9272  158.7253 C.ar    1  UNL1        0.0067
     35 C         140.3352  143.8614  159.7185 C.ar    1  UNL1        0.0540
@<TRIPOS>BOND
     1    12    13    1
     2    13    14    1
     3    14    15    1
     4    15    16    1
     5    16    11    1
     6    11     5    1
     7     5     6   ar
     8     6     7   ar
     9     7     8   ar
    10     8     4    1
    11     4     3    1
    12     3     2    1
    13     2     1    1
    14     1    19    1
    15    19    20    1
    16    20    21    1
    17    21    22    1
    18    22    23    1
    19    23    26    1
    20    26    27   ar
    21    27    28   ar
    22    28    29   ar
    23    29    30   ar
    24    30    31   ar
    25    31    32    1
    26    31    33   ar
    27    33    34   ar
    28    34    35   ar
    29    23    24    1
    30    24    25    1
    31     8     9   ar
    32     9    10   ar
    33    16    17    1
    34    17    18    1
    35    18    13    1
    36    10     5   ar
    37    25    20    1
    38    35    26   ar
    39    35    29   ar
@<TRIPOS>MOLECULE
*****
 35 39 0 0 0
SMALL
GASTEIGER

@<TRIPOS>ATOM
      1 C         139.5926  140.4929  167.4958 C.3     1  UNL1        0.0212
      2 C         140.2492  139.9756  168.7413 C.3     1  UNL1        0.0488
      3 C         141.7416  139.8363  168.7998 C.3     1  UNL1        0.2054
      4 O         142.4788  139.1831  167.6684 O.3     1  UNL1       -0.4755
      5 C         144.3534  141.7077  164.4494 C.ar    1  UNL1       -0.0059
      6 C         143.6125  142.3607  165.5784 C.ar    1  UNL1        0.0002
      7 C         142.9876  141.5191  166.6514 C.ar    1  UNL1        0.0366
      8 C         143.1037  140.0247  166.5954 C.ar    1  UNL1        0.1385
      9 C         143.8446  139.3717  165.4664 C.ar    1  UNL1        0.0366
     10 C         144.4695  140.2133  164.3934 C.ar    1  UNL1        0.0002
     11 C         144.9783  142.5493  163.3764 C.3     1  UNL1        0.0992
     12 C         141.7398  144.2272  158.6122 C.3     1  UNL1        0.0897
     13 N         142.5494  143.8077  159.8033 N.3     1  UNL1       -0.2691
     14 C         142.2166  144.3454  161.1634 C.3     1  UNL1        0.0897
     15 C         143.0262  143.9259  162.3545 C.3     1  UNL1        0.0899
     16 N         144.1687  142.9687  162.1853 N.3     1  UNL1       -0.2665
     17 C         144.5016  142.4311  160.8251 C.3     1  UNL1        0.0899
     18 C         143.6919  142.8506  159.6342 C.3     1  UNL1        0.0897
     19 C         139.1197  139.5340  166.4437 C.3     1  UNL1        0.0722
     20 N         139.8878  139.3862  165.1638 N.3     1  UNL1       -0.2727
     21 C         140.1910  140.5938  164.3273 C.3     1  UNL1        0.0725
     22 C         140.9591  140.4460  163.0474 C.3     1  UNL1        0.0234
     23 C         141.4241  139.0905  162.6040 C.3     1  UNL1        0.0464
     24 C         141.1209  137.8830  163.4405 C.3     1  UNL1        0.0234
     25 C         140.3528  138.0308  164.7204 C.3     1  UNL1        0.0725
     26 C         142.1922  138.9427  161.3241 C.ar    1  UNL1        0.1003
     27 N         143.6841  139.0019  161.1793 N.ar    1  UNL1       -0.0814
     28 O         144.0172  138.8055  159.7300 O.2     1  UNL1       -0.3536
     29 C         142.7312  138.6249  158.9791 C.ar    1  UNL1        0.1787
     30 C         142.4416  138.3942  157.5255 C.ar    1  UNL1        0.0698
     31 C         141.0241  138.2483  157.0572 C.ar    1  UNL1        0.1433
     32 F         140.7345  138.0176  155.6036 F       1  UNL1       -0.2041
     33 C         139.8963  138.3331  158.0425 C.ar    1  UNL1        0.0299
     34 C         140.1859  138.5638  159.4960 C.ar    1  UNL1        0.0067
     35 C         141.6034  138.7097  159.9643 C.ar    1  UNL1        0.0540
@<TRIPOS>BOND
     1    12    13    1
     2    13    14    1
     3    14    15    1
     4    15    16    1
     5    16    11    1
     6    11     5    1
     7     5     6   ar
     8     6     7   ar
     9     7     8   ar
    10     8     4    1
    11     4     3    1
    12     3     2    1
    13     2     1    1
    14     1    19    1
    15    19    20    1
    16    20    21    1
    17    21    22    1
    18    22    23    1
    19    23    26    1
    20    26    27   ar
    21    27    28   ar
    22    28    29   ar
    23    29    30   ar
    24    30    31   ar
    25    31    32    1
    26    31    33   ar
    27    33    34   ar
    28    34    35   ar
    29    23    24    1
    30    24    25    1
    31     8     9   ar
    32     9    10   ar
    33    16    17    1
    34    17    18    1
    35    18    13    1
    36    10     5   ar
    37    25    20    1
    38    35    26   ar
    39    35    29   ar
@<TRIPOS>MOLECULE
*****
 35 39 0 0 0
SMALL
GASTEIGER

@<TRIPOS>ATOM
      1 C         141.0858  139.6871  169.9331 C.3     1  UNL1        0.0212
      2 C         140.1073  140.4934  169.1314 C.3     1  UNL1        0.0488
      3 C         139.1988  139.8119  168.1516 C.3     1  UNL1        0.2054
      4 O         139.6741  139.5334  166.7564 O.3     1  UNL1       -0.4755
      5 C         138.3688  142.1856  163.3635 C.ar    1  UNL1       -0.0059
      6 C         138.0487  140.7204  163.3360 C.ar    1  UNL1        0.0002
      7 C         138.4838  139.8364  164.4670 C.ar    1  UNL1        0.0366
      8 C         139.2390  140.4175  165.6254 C.ar    1  UNL1        0.1385
      9 C         139.5591  141.8827  165.6529 C.ar    1  UNL1        0.0366
     10 C         139.1240  142.7667  164.5219 C.ar    1  UNL1        0.0002
     11 C         137.9337  143.0697  162.2325 C.3     1  UNL1        0.0992
     12 C         141.4587  143.7439  157.4242 C.3     1  UNL1        0.0897
     13 N         140.5775  143.5753  158.6262 N.3     1  UNL1       -0.2691
     14 C         139.2865  142.8204  158.5099 C.3     1  UNL1        0.0897
     15 C         138.4052  142.6519  159.7120 C.3     1  UNL1        0.0899
     16 N         138.8150  143.2382  161.0305 N.3     1  UNL1       -0.2665
     17 C         140.1059  143.9931  161.1468 C.3     1  UNL1        0.0899
     18 C         140.9871  144.1616  159.9447 C.3     1  UNL1        0.0897
     19 C         142.4990  139.5314  169.4550 C.3     1  UNL1        0.0722
     20 N         142.8493  139.8538  168.0325 N.3     1  UNL1       -0.2727
     21 C         143.1517  138.7477  167.0655 C.3     1  UNL1        0.0725
     22 C         143.5020  139.0701  165.6430 C.3     1  UNL1        0.0234
     23 C         143.5499  140.4985  165.1876 C.3     1  UNL1        0.0464
     24 C         143.2474  141.6045  166.1546 C.3     1  UNL1        0.0234
     25 C         142.8971  141.2821  167.5771 C.3     1  UNL1        0.0725
     26 C         143.9002  140.8209  163.7651 C.ar    1  UNL1        0.1003
     27 N         145.1886  141.4239  163.2893 N.ar    1  UNL1       -0.0814
     28 O         145.1082  141.5725  161.7988 O.2     1  UNL1       -0.3536
     29 C         143.7702  141.0613  161.3535 C.ar    1  UNL1        0.1787
     30 C         143.1352  140.9587  159.9984 C.ar    1  UNL1        0.0698
     31 C         141.7536  140.3917  159.8586 C.ar    1  UNL1        0.1433
     32 F         141.1185  140.2891  158.5035 F       1  UNL1       -0.2041
     33 C         141.0070  139.9272  161.0738 C.ar    1  UNL1        0.0299
     34 C         141.6420  140.0297  162.4289 C.ar    1  UNL1        0.0067
     35 C         143.0236  140.5967  162.5687 C.ar    1  UNL1        0.0540
@<TRIPOS>BOND
     1    12    13    1
     2    13    14    1
     3    14    15    1
     4    15    16    1
     5    16    11    1
     6    11     5    1
     7     5     6   ar
     8     6     7   ar
     9     7     8   ar
    10     8     4    1
    11     4     3    1
    12     3     2    1
    13     2     1    1
    14     1    19    1
    15    19    20    1
    16    20    21    1
    17    21    22    1
    18    22    23    1
    19    23    26    1
    20    26    27   ar
    21    27    28   ar
    22    28    29   ar
    23    29    30   ar
    24    30    31   ar
    25    31    32    1
    26    31    33   ar
    27    33    34   ar
    28    34    35   ar
    29    23    24    1
    30    24    25    1
    31     8     9   ar
    32     9    10   ar
    33    16    17    1
    34    17    18    1
    35    18    13    1
    36    10     5   ar
    37    25    20    1
    38    35    26   ar
    39    35    29   ar
@<TRIPOS>MOLECULE
*****
 35 39 0 0 0
SMALL
GASTEIGER

@<TRIPOS>ATOM
      1 C         145.4381  141.2872  156.8623 C.3     1  UNL1        0.0212
      2 C         144.3033  140.8838  155.9680 C.3     1  UNL1        0.0488
      3 C         143.4746  139.6798  156.3049 C.3     1  UNL1        0.2054
      4 O         143.6904  138.9601  157.6031 O.3     1  UNL1       -0.4755
      5 C         140.2706  138.4358  160.4806 C.ar    1  UNL1       -0.0059
      6 C         140.0295  139.0488  159.1330 C.ar    1  UNL1        0.0002
      7 C         141.1695  139.2236  158.1738 C.ar    1  UNL1        0.0366
      8 C         142.5504  138.7853  158.5623 C.ar    1  UNL1        0.1385
      9 C         142.7914  138.1723  159.9099 C.ar    1  UNL1        0.0366
     10 C         141.6515  137.9975  160.8691 C.ar    1  UNL1        0.0002
     11 C         139.1306  138.2610  161.4398 C.3     1  UNL1        0.0992
     12 C         139.5913  140.3239  167.0551 C.3     1  UNL1        0.0897
     13 N         139.4761  139.8081  165.6513 N.3     1  UNL1       -0.2691
     14 C         139.7349  138.3595  165.3609 C.3     1  UNL1        0.0897
     15 C         139.6197  137.8438  163.9570 C.3     1  UNL1        0.0899
     16 N         139.2458  138.7768  162.8436 N.3     1  UNL1       -0.2665
     17 C         138.9870  140.2254  163.1340 C.3     1  UNL1        0.0899
     18 C         139.1022  140.7411  164.5379 C.3     1  UNL1        0.0897
     19 C         145.2603  142.4121  157.8385 C.3     1  UNL1        0.0722
     20 N         143.9519  142.5871  158.5509 N.3     1  UNL1       -0.2727
     21 C         142.8979  143.4848  157.9736 C.3     1  UNL1        0.0725
     22 C         141.5895  143.6599  158.6860 C.3     1  UNL1        0.0234
     23 C         141.3351  142.9372  159.9757 C.3     1  UNL1        0.0464
     24 C         142.3891  142.0396  160.5529 C.3     1  UNL1        0.0234
     25 C         143.6975  141.8646  159.8405 C.3     1  UNL1        0.0725
     26 C         140.0267  143.1123  160.6880 C.ar    1  UNL1        0.1003
     27 N         138.6766  142.7284  160.1591 N.ar    1  UNL1       -0.0814
     28 O         137.6543  143.0809  161.1986 O.2     1  UNL1       -0.3536
     29 C         138.3725  143.6826  162.3700 C.ar    1  UNL1        0.1787
     30 C         137.8808  144.2153  163.6831 C.ar    1  UNL1        0.0698
     31 C         138.8554  144.7675  164.6807 C.ar    1  UNL1        0.1433
     32 F         138.3637  145.3002  165.9939 F       1  UNL1       -0.2041
     33 C         140.3217  144.7869  164.3651 C.ar    1  UNL1        0.0299
     34 C         140.8134  144.2542  163.0520 C.ar    1  UNL1        0.0067
     35 C         139.8388  143.7020  162.0544 C.ar    1  UNL1        0.0540
@<TRIPOS>BOND
     1    12    13    1
     2    13    14    1
     3    14    15    1
     4    15    16    1
     5    16    11    1
     6    11     5    1
     7     5     6   ar
     8     6     7   ar
     9     7     8   ar
    10     8     4    1
    11     4     3    1
    12     3     2    1
    13     2     1    1
    14     1    19    1
    15    19    20    1
    16    20    21    1
    17    21    22    1
    18    22    23    1
    19    23    26    1
    20    26    27   ar
    21    27    28   ar
    22    28    29   ar
    23    29    30   ar
    24    30    31   ar
    25    31    32    1
    26    31    33   ar
    27    33    34   ar
    28    34    35   ar
    29    23    24    1
    30    24    25    1
    31     8     9   ar
    32     9    10   ar
    33    16    17    1
    34    17    18    1
    35    18    13    1
    36    10     5   ar
    37    25    20    1
    38    35    26   ar
    39    35    29   ar
@<TRIPOS>MOLECULE
*****
 35 39 0 0 0
SMALL
GASTEIGER

@<TRIPOS>ATOM
      1 C         141.6818  144.3132  157.7992 C.3     1  UNL1        0.0212
      2 C         141.1805  145.4289  158.6676 C.3     1  UNL1        0.0488
      3 C         140.8574  145.1699  160.1093 C.3     1  UNL1        0.2054
      4 O         141.9187  145.3329  161.1567 O.3     1  UNL1       -0.4755
      5 C         142.7312  142.0042  164.0737 C.ar    1  UNL1       -0.0059
      6 C         141.3509  142.5799  163.9582 C.ar    1  UNL1        0.0002
      7 C         141.0801  143.6895  162.9859 C.ar    1  UNL1        0.0366
      8 C         142.1895  144.2233  162.1291 C.ar    1  UNL1        0.1385
      9 C         143.5698  143.6476  162.2446 C.ar    1  UNL1        0.0366
     10 C         143.8406  142.5380  163.2169 C.ar    1  UNL1        0.0002
     11 C         143.0020  140.8946  165.0461 C.3     1  UNL1        0.0992
     12 C         141.1140  141.3524  170.7229 C.3     1  UNL1        0.0897
     13 N         141.5860  141.2379  169.3037 N.3     1  UNL1       -0.2691
     14 C         141.0863  140.1220  168.4348 C.3     1  UNL1        0.0897
     15 C         141.5583  140.0076  167.0155 C.3     1  UNL1        0.0899
     16 N         142.5301  141.0091  166.4653 N.3     1  UNL1       -0.2665
     17 C         143.0297  142.1250  167.3342 C.3     1  UNL1        0.0899
     18 C         142.5577  142.2394  168.7533 C.3     1  UNL1        0.0897
     19 C         140.8377  143.0918  157.5857 C.3     1  UNL1        0.0722
     20 N         140.7470  142.0462  158.6574 N.3     1  UNL1       -0.2727
     21 C         139.4436  141.3514  158.9188 C.3     1  UNL1        0.0725
     22 C         139.3528  140.3057  159.9904 C.3     1  UNL1        0.0234
     23 C         140.5655  139.9548  160.8006 C.3     1  UNL1        0.0464
     24 C         141.8688  140.6496  160.5391 C.3     1  UNL1        0.0234
     25 C         141.9596  141.6953  159.4675 C.3     1  UNL1        0.0725
     26 C         140.4747  138.9092  161.8723 C.ar    1  UNL1        0.1003
     27 N         141.1455  137.5676  161.8541 N.ar    1  UNL1       -0.0814
     28 O         140.7826  136.8508  163.1208 O.2     1  UNL1       -0.3536
     29 C         139.8875  137.7494  163.9218 C.ar    1  UNL1        0.1787
     30 C         139.2212  137.5736  165.2541 C.ar    1  UNL1        0.0698
     31 C         138.3646  138.6699  165.8147 C.ar    1  UNL1        0.1433
     32 F         137.6982  138.4941  167.1470 F       1  UNL1       -0.2041
     33 C         138.1744  139.9420  165.0430 C.ar    1  UNL1        0.0299
     34 C         138.8407  140.1178  163.7107 C.ar    1  UNL1        0.0067
     35 C         139.6973  139.0215  163.1501 C.ar    1  UNL1        0.0540
@<TRIPOS>BOND
     1    12    13    1
     2    13    14    1
     3    14    15    1
     4    15    16    1
     5    16    11    1
     6    11     5    1
     7     5     6   ar
     8     6     7   ar
     9     7     8   ar
    10     8     4    1
    11     4     3    1
    12     3     2    1
    13     2     1    1
    14     1    19    1
    15    19    20    1
    16    20    21    1
    17    21    22    1
    18    22    23    1
    19    23    26    1
    20    26    27   ar
    21    27    28   ar
    22    28    29   ar
    23    29    30   ar
    24    30    31   ar
    25    31    32    1
    26    31    33   ar
    27    33    34   ar
    28    34    35   ar
    29    23    24    1
    30    24    25    1
    31     8     9   ar
    32     9    10   ar
    33    16    17    1
    34    17    18    1
    35    18    13    1
    36    10     5   ar
    37    25    20    1
    38    35    26   ar
    39    35    29   ar
@<TRIPOS>MOLECULE
*****
 35 39 0 0 0
SMALL
GASTEIGER

@<TRIPOS>ATOM
      1 C         142.5163  140.9938  155.6596 C.3     1  UNL1        0.0212
      2 C         142.3413  139.7082  156.4124 C.3     1  UNL1        0.0488
      3 C         143.3437  139.3062  157.4533 C.3     1  UNL1        0.2054
      4 O         143.1108  138.0797  158.2848 O.3     1  UNL1       -0.4755
      5 C         140.4637  138.2937  161.9176 C.ar    1  UNL1       -0.0059
      6 C         139.9139  138.6460  160.5672 C.ar    1  UNL1        0.0002
      7 C         140.7963  138.5747  159.3563 C.ar    1  UNL1        0.0366
      8 C         142.2284  138.1510  159.4958 C.ar    1  UNL1        0.1385
      9 C         142.7782  137.7987  160.8462 C.ar    1  UNL1        0.0366
     10 C         141.8959  137.8701  162.0571 C.ar    1  UNL1        0.0002
     11 C         139.5814  138.3650  163.1286 C.3     1  UNL1        0.0992
     12 C         140.5315  142.5829  167.2887 C.3     1  UNL1        0.0897
     13 N         140.2940  141.5284  166.2487 N.3     1  UNL1       -0.2691
     14 C         141.0148  141.5950  164.9349 C.3     1  UNL1        0.0897
     15 C         140.7772  140.5404  163.8948 C.3     1  UNL1        0.0899
     16 N         139.8189  139.4194  164.1686 N.3     1  UNL1       -0.2665
     17 C         139.0981  139.3529  165.4824 C.3     1  UNL1        0.0899
     18 C         139.3357  140.4074  166.5224 C.3     1  UNL1        0.0897
     19 C         141.9467  142.2680  156.2090 C.3     1  UNL1        0.0722
     20 N         141.1179  142.2415  157.4590 N.3     1  UNL1       -0.2727
     21 C         139.6215  142.1946  157.3659 C.3     1  UNL1        0.0725
     22 C         138.7928  142.1680  158.6158 C.3     1  UNL1        0.0234
     23 C         139.4604  142.1884  159.9590 C.3     1  UNL1        0.0464
     24 C         140.9567  142.2354  160.0520 C.3     1  UNL1        0.0234
     25 C         141.7855  142.2619  158.8021 C.3     1  UNL1        0.0725
     26 C         138.6316  142.1619  161.2090 C.ar    1  UNL1        0.1003
     27 N         137.5291  141.1921  161.5154 N.ar    1  UNL1       -0.0814
     28 O         136.9760  141.5314  162.8678 O.2     1  UNL1       -0.3536
     29 C         137.7367  142.7109  163.3972 C.ar    1  UNL1        0.1787
     30 C         137.6298  143.4803  164.6803 C.ar    1  UNL1        0.0698
     31 C         138.5461  144.6395  164.9382 C.ar    1  UNL1        0.1433
     32 F         138.4393  145.4091  166.2214 F       1  UNL1       -0.2041
     33 C         139.5694  145.0292  163.9130 C.ar    1  UNL1        0.0299
     34 C         139.6763  144.2597  162.6299 C.ar    1  UNL1        0.0067
     35 C         138.7599  143.1005  162.3720 C.ar    1  UNL1        0.0540
@<TRIPOS>BOND
     1    12    13    1
     2    13    14    1
     3    14    15    1
     4    15    16    1
     5    16    11    1
     6    11     5    1
     7     5     6   ar
     8     6     7   ar
     9     7     8   ar
    10     8     4    1
    11     4     3    1
    12     3     2    1
    13     2     1    1
    14     1    19    1
    15    19    20    1
    16    20    21    1
    17    21    22    1
    18    22    23    1
    19    23    26    1
    20    26    27   ar
    21    27    28   ar
    22    28    29   ar
    23    29    30   ar
    24    30    31   ar
    25    31    32    1
    26    31    33   ar
    27    33    34   ar
    28    34    35   ar
    29    23    24    1
    30    24    25    1
    31     8     9   ar
    32     9    10   ar
    33    16    17    1
    34    17    18    1
    35    18    13    1
    36    10     5   ar
    37    25    20    1
    38    35    26   ar
    39    35    29   ar
@<TRIPOS>MOLECULE
*****
 35 39 0 0 0
SMALL
GASTEIGER

@<TRIPOS>ATOM
      1 C         140.1738  138.4235  159.2512 C.3     1  UNL1        0.0212
      2 C         141.2515  138.3809  158.2087 C.3     1  UNL1        0.0488
      3 C         142.6651  138.0716  158.6036 C.3     1  UNL1        0.2054
      4 O         143.6949  139.1622  158.6204 O.3     1  UNL1       -0.4755
      5 C         143.0093  142.8664  161.0818 C.ar    1  UNL1       -0.0059
      6 C         143.2041  141.5419  161.7582 C.ar    1  UNL1        0.0002
      7 C         143.4326  140.3072  160.9378 C.ar    1  UNL1        0.0366
      8 C         143.4663  140.3970  159.4408 C.ar    1  UNL1        0.1385
      9 C         143.2716  141.7215  158.7644 C.ar    1  UNL1        0.0366
     10 C         143.0431  142.9562  159.5848 C.ar    1  UNL1        0.0002
     11 C         142.7808  144.1012  161.9022 C.3     1  UNL1        0.0992
     12 C         137.7834  144.6444  165.1780 C.3     1  UNL1        0.0897
     13 N         139.0327  144.5086  164.3591 N.3     1  UNL1       -0.2691
     14 C         140.3093  144.0610  165.0071 C.3     1  UNL1        0.0897
     15 C         141.5587  143.9252  164.1881 C.3     1  UNL1        0.0899
     16 N         141.5314  144.2370  162.7211 N.3     1  UNL1       -0.2665
     17 C         140.2548  144.6846  162.0731 C.3     1  UNL1        0.0899
     18 C         139.0055  144.8204  162.8921 C.3     1  UNL1        0.0897
     19 C         139.9392  139.6799  160.0364 C.3     1  UNL1        0.0722
     20 N         139.6363  139.6019  161.5035 N.3     1  UNL1       -0.2727
     21 C         139.4322  140.8596  162.2950 C.3     1  UNL1        0.0725
     22 C         139.1293  140.7816  163.7621 C.3     1  UNL1        0.0234
     23 C         139.0305  139.4458  164.4376 C.3     1  UNL1        0.0464
     24 C         139.2346  138.1883  163.6460 C.3     1  UNL1        0.0234
     25 C         139.5375  138.2662  162.1789 C.3     1  UNL1        0.0725
     26 C         138.7276  139.3679  165.9046 C.ar    1  UNL1        0.1003
     27 N         137.6553  138.5336  166.5403 N.ar    1  UNL1       -0.0814
     28 O         137.7089  138.7606  168.0221 O.2     1  UNL1       -0.3536
     29 C         138.8142  139.7352  168.3021 C.ar    1  UNL1        0.1787
     30 C         139.3287  140.3294  169.5797 C.ar    1  UNL1        0.0698
     31 C         140.4728  141.2989  169.5485 C.ar    1  UNL1        0.1433
     32 F         140.9874  141.8931  170.8261 F       1  UNL1       -0.2041
     33 C         141.1024  141.6742  168.2398 C.ar    1  UNL1        0.0299
     34 C         140.5879  141.0800  166.9622 C.ar    1  UNL1        0.0067
     35 C         139.4438  140.1105  166.9934 C.ar    1  UNL1        0.0540
@<TRIPOS>BOND
     1    12    13    1
     2    13    14    1
     3    14    15    1
     4    15    16    1
     5    16    11    1
     6    11     5    1
     7     5     6   ar
     8     6     7   ar
     9     7     8   ar
    10     8     4    1
    11     4     3    1
    12     3     2    1
    13     2     1    1
    14     1    19    1
    15    19    20    1
    16    20    21    1
    17    21    22    1
    18    22    23    1
    19    23    26    1
    20    26    27   ar
    21    27    28   ar
    22    28    29   ar
    23    29    30   ar
    24    30    31   ar
    25    31    32    1
    26    31    33   ar
    27    33    34   ar
    28    34    35   ar
    29    23    24    1
    30    24    25    1
    31     8     9   ar
    32     9    10   ar
    33    16    17    1
    34    17    18    1
    35    18    13    1
    36    10     5   ar
    37    25    20    1
    38    35    26   ar
    39    35    29   ar
@<TRIPOS>MOLECULE
*****
 35 39 0 0 0
SMALL
GASTEIGER

@<TRIPOS>ATOM
      1 C         141.2690  144.9522  160.4891 C.3     1  UNL1        0.0212
      2 C         141.1938  144.9142  158.9914 C.3     1  UNL1        0.0488
      3 C         142.3659  144.4241  158.1939 C.3     1  UNL1        0.2054
      4 O         143.4316  143.6014  158.8552 O.3     1  UNL1       -0.4755
      5 C         142.4688  139.4793  160.3821 C.ar    1  UNL1       -0.0059
      6 C         143.2117  140.4476  161.2542 C.ar    1  UNL1        0.0002
      7 C         143.5326  141.8216  160.7452 C.ar    1  UNL1        0.0366
      8 C         143.1107  142.2273  159.3642 C.ar    1  UNL1        0.1385
      9 C         142.3679  141.2591  158.4921 C.ar    1  UNL1        0.0366
     10 C         142.0469  139.8851  159.0010 C.ar    1  UNL1        0.0002
     11 C         142.1479  138.1053  160.8911 C.3     1  UNL1        0.0992
     12 C         138.4659  137.4268  165.5797 C.3     1  UNL1        0.0897
     13 N         139.3864  137.5965  164.4076 N.3     1  UNL1       -0.2691
     14 C         138.8244  137.9004  163.0504 C.3     1  UNL1        0.0897
     15 C         139.7450  138.0700  161.8782 C.3     1  UNL1        0.0899
     16 N         141.2275  137.9357  162.0633 N.3     1  UNL1       -0.2665
     17 C         141.7894  137.6318  163.4204 C.3     1  UNL1        0.0899
     18 C         140.8689  137.4622  164.5925 C.3     1  UNL1        0.0897
     19 C         140.2621  144.2021  161.3098 C.3     1  UNL1        0.0722
     20 N         140.7159  143.3462  162.4551 N.3     1  UNL1       -0.2727
     21 C         140.1032  141.9940  162.6696 C.3     1  UNL1        0.0725
     22 C         140.5570  141.1382  163.8149 C.3     1  UNL1        0.0234
     23 C         141.6234  141.6347  164.7457 C.3     1  UNL1        0.0464
     24 C         142.2360  142.9869  164.5311 C.3     1  UNL1        0.0234
     25 C         141.7823  143.8427  163.3858 C.3     1  UNL1        0.0725
     26 C         142.0772  140.7789  165.8910 C.ar    1  UNL1        0.1003
     27 N         143.2627  139.8598  165.8893 N.ar    1  UNL1       -0.0814
     28 O         143.3432  139.2048  167.2364 O.2     1  UNL1       -0.3536
     29 C         142.2076  139.7191  168.0705 C.ar    1  UNL1        0.1787
     30 C         141.7849  139.4271  169.4798 C.ar    1  UNL1        0.0698
     31 C         140.5797  140.1081  170.0576 C.ar    1  UNL1        0.1433
     32 F         140.1569  139.8162  171.4669 F       1  UNL1       -0.2041
     33 C         139.7972  141.0809  169.2261 C.ar    1  UNL1        0.0299
     34 C         140.2199  141.3728  167.8168 C.ar    1  UNL1        0.0067
     35 C         141.4251  140.6919  167.2391 C.ar    1  UNL1        0.0540
@<TRIPOS>BOND
     1    12    13    1
     2    13    14    1
     3    14    15    1
     4    15    16    1
     5    16    11    1
     6    11     5    1
     7     5     6   ar
     8     6     7   ar
     9     7     8   ar
    10     8     4    1
    11     4     3    1
    12     3     2    1
    13     2     1    1
    14     1    19    1
    15    19    20    1
    16    20    21    1
    17    21    22    1
    18    22    23    1
    19    23    26    1
    20    26    27   ar
    21    27    28   ar
    22    28    29   ar
    23    29    30   ar
    24    30    31   ar
    25    31    32    1
    26    31    33   ar
    27    33    34   ar
    28    34    35   ar
    29    23    24    1
    30    24    25    1
    31     8     9   ar
    32     9    10   ar
    33    16    17    1
    34    17    18    1
    35    18    13    1
    36    10     5   ar
    37    25    20    1
    38    35    26   ar
    39    35    29   ar
