@<TRIPOS>MOLECULE
*****
 48 52 0 0 0
SMALL
GASTEIGER

@<TRIPOS>ATOM
      1 C         140.1094  145.3763  157.8629 C.ar    1  UNL1        0.1388
      2 N         139.5498  144.0774  157.3633 N.ar    1  UNL1       -0.2292
      3 C         139.8601  142.7999  158.0855 C.ar    1  UNL1        0.1015
      4 C         140.7300  142.8212  159.3073 C.ar    1  UNL1        0.0374
      5 C         141.2896  144.1201  159.8068 C.ar    1  UNL1        0.0821
      6 N         140.9793  145.3977  159.0846 N.ar    1  UNL1       -0.2333
      7 C         141.0403  141.5436  160.0294 C.ar    1  UNL1        0.0367
      8 C         140.3427  141.2219  161.3178 C.ar    1  UNL1        0.0031
      9 C         140.6530  139.9444  162.0400 C.ar    1  UNL1       -0.0001
     10 C         141.6609  138.9885  161.4738 C.ar    1  UNL1        0.0031
     11 C         142.3584  139.3102  160.1855 C.ar    1  UNL1        0.0369
     12 C         142.0481  140.5878  159.4633 C.ar    1  UNL1        0.1387
     13 C         139.9555  139.6227  163.3284 C.ar    1  UNL1       -0.0039
     14 C         138.8559  140.5121  163.8284 C.ar    1  UNL1       -0.0003
     15 C         138.1583  140.1904  165.1168 C.ar    1  UNL1        0.0011
     16 C         138.5604  138.9793  165.9052 C.ar    1  UNL1        0.0137
     17 C         139.6599  138.0899  165.4052 C.ar    1  UNL1       -0.0031
     18 C         140.3575  138.4116  164.1169 C.ar    1  UNL1       -0.0218
     19 C         141.4571  137.5222  163.6169 C.3     1  UNL1        0.0310
     20 C         137.8628  138.6576  167.1936 C.2     1  UNL1        0.0729
     21 O         136.7163  137.6905  167.2046 O.co2   1  UNL1       -0.5446
     22 O         138.3119  139.3030  168.4710 O.co2   1  UNL1       -0.5446
     23 O         142.7457  140.9095  158.1748 O.3     1  UNL1       -0.4714
     24 C         144.2026  141.2660  158.1795 C.3     1  UNL1        0.2525
     25 C         139.2848  146.6134  155.7322 C.3     1  UNL1        0.0084
     26 C         139.7991  146.6539  157.1407 C.3     1  UNL1        0.0657
     27 C         142.1595  144.1415  161.0287 C.3     1  UNL1        0.1427
     28 N         141.5530  143.9352  162.3849 N.am    1  UNL1       -0.2380
     29 C         140.3383  144.6317  162.9227 C.2     1  UNL1        0.4055
     30 O         139.5168  145.6569  162.1987 O.2     1  UNL1       -0.2262
     31 O         140.0892  144.1231  164.3117 O.3     1  UNL1       -0.4320
     32 C         141.1500  143.1121  164.6323 C.3     1  UNL1        0.2107
     33 C         142.0546  142.9960  163.4415 C.3     1  UNL1        0.1233
     34 C         143.2509  142.0983  163.3273 C.3     1  UNL1        0.0258
     35 C         141.2828  142.3510  165.9180 C.ar    1  UNL1        0.0189
     36 C         142.0708  141.0753  165.9565 C.ar    1  UNL1        0.0031
     37 C         142.2036  140.3142  167.2421 C.ar    1  UNL1        0.0712
     38 C         141.5483  140.8287  168.4894 C.ar    1  UNL1        0.0077
     39 C         140.7603  142.1044  168.4511 C.ar    1  UNL1        0.0712
     40 C         140.6275  142.8656  167.1654 C.ar    1  UNL1        0.0031
     41 C         142.9917  139.0385  167.2805 C.3     1  UNL1        0.4186
     42 F         143.7798  137.7627  167.3189 F       1  UNL1       -0.1659
     43 F         143.3658  139.2262  165.8402 F       1  UNL1       -0.1659
     44 F         142.6175  138.8506  168.7209 F       1  UNL1       -0.1659
     45 C         140.1050  142.6190  169.6984 C.3     1  UNL1        0.4186
     46 F         139.4497  143.1336  170.9457 F       1  UNL1       -0.1659
     47 F         139.9705  141.2144  170.2072 F       1  UNL1       -0.1659
     48 F         140.2394  144.0237  169.1895 F       1  UNL1       -0.1659
@<TRIPOS>UNITY_ATOM_ATTR
21 1
charge -1
@<TRIPOS>BOND
     1    25    26    1
     2    26     1    1
     3     1     2   ar
     4     2     3   ar
     5     3     4   ar
     6     4     7    1
     7     7     8   ar
     8     8     9   ar
     9     9    13    1
    10    13    14   ar
    11    14    15   ar
    12    15    16   ar
    13    16    20    1
    14    20    21   ar
    15    20    22   ar
    16    16    17   ar
    17    17    18   ar
    18    18    19    1
    19     9    10   ar
    20    10    11   ar
    21    11    12   ar
    22    12    23    1
    23    23    24    1
    24     4     5   ar
    25     5    27    1
    26    27    28    1
    27    28    29   am
    28    29    30    2
    29    29    31    1
    30    31    32    1
    31    32    35    1
    32    35    36   ar
    33    36    37   ar
    34    37    41    1
    35    41    42    1
    36    41    43    1
    37    41    44    1
    38    37    38   ar
    39    38    39   ar
    40    39    45    1
    41    45    46    1
    42    45    47    1
    43    45    48    1
    44    39    40   ar
    45    32    33    1
    46    33    34    1
    47     5     6   ar
    48     6     1   ar
    49    12     7   ar
    50    33    28    1
    51    18    13   ar
    52    40    35   ar
@<TRIPOS>MOLECULE
*****
 48 52 0 0 0
SMALL
GASTEIGER

@<TRIPOS>ATOM
      1 C         140.1488  145.3484  157.9020 C.ar    1  UNL1        0.1388
      2 N         139.5716  144.0569  157.4032 N.ar    1  UNL1       -0.2292
      3 C         139.8695  142.7748  158.1224 C.ar    1  UNL1        0.1015
      4 C         140.7448  142.7841  159.3406 C.ar    1  UNL1        0.0374
      5 C         141.3220  144.0756  159.8394 C.ar    1  UNL1        0.0821
      6 N         141.0240  145.3577  159.1201 N.ar    1  UNL1       -0.2333
      7 C         141.0427  141.5020  160.0599 C.ar    1  UNL1        0.0367
      8 C         140.3416  141.1838  161.3471 C.ar    1  UNL1        0.0031
      9 C         140.6396  139.9016  162.0664 C.ar    1  UNL1       -0.0001
     10 C         141.6387  138.9378  161.4984 C.ar    1  UNL1        0.0031
     11 C         142.3399  139.2560  160.2112 C.ar    1  UNL1        0.0369
     12 C         142.0419  140.5381  159.4919 C.ar    1  UNL1        0.1387
     13 C         139.9384  139.5834  163.3537 C.ar    1  UNL1       -0.0039
     14 C         138.8707  140.5002  163.8727 C.ar    1  UNL1       -0.0003
     15 C         138.1694  140.1820  165.1600 C.ar    1  UNL1        0.0011
     16 C         138.5360  138.9469  165.9283 C.ar    1  UNL1        0.0137
     17 C         139.6038  138.0301  165.4092 C.ar    1  UNL1       -0.0031
     18 C         140.3049  138.3483  164.1220 C.ar    1  UNL1       -0.0218
     19 C         141.3727  137.4315  163.6029 C.3     1  UNL1        0.0310
     20 C         137.8349  138.6287  167.2155 C.2     1  UNL1        0.0729
     21 O         136.7277  137.6169  167.2363 O.co2   1  UNL1       -0.5446
     22 O         138.2409  139.3222  168.4820 O.co2   1  UNL1       -0.5446
     23 O         142.7431  140.8564  158.2046 O.3     1  UNL1       -0.4714
     24 C         144.2246  141.0906  158.1956 C.3     1  UNL1        0.2525
     25 C         139.3397  146.5982  155.7729 C.3     1  UNL1        0.0084
     26 C         139.8508  146.6305  157.1827 C.3     1  UNL1        0.0657
     27 C         142.1973  144.0850  161.0576 C.3     1  UNL1        0.1427
     28 N         141.5907  143.9105  162.4183 N.am    1  UNL1       -0.2380
     29 C         140.4106  144.6613  162.9604 C.2     1  UNL1        0.4055
     30 O         139.6300  145.7183  162.2370 O.2     1  UNL1       -0.2262
     31 O         140.1483  144.1694  164.3530 O.3     1  UNL1       -0.4320
     32 C         141.1661  143.1147  164.6715 C.3     1  UNL1        0.2107
     33 C         142.0576  142.9547  163.4758 C.3     1  UNL1        0.1233
     34 C         143.2131  142.0055  163.3583 C.3     1  UNL1        0.0258
     35 C         141.2737  142.3536  165.9596 C.ar    1  UNL1        0.0189
     36 C         140.6045  142.8747  167.1968 C.ar    1  UNL1        0.0031
     37 C         140.7121  142.1136  168.4848 C.ar    1  UNL1        0.0712
     38 C         141.4887  140.8314  168.5358 C.ar    1  UNL1        0.0077
     39 C         142.1579  140.3103  167.2986 C.ar    1  UNL1        0.0712
     40 C         142.0504  141.0713  166.0105 C.ar    1  UNL1        0.0031
     41 C         140.0429  142.6348  169.7220 C.3     1  UNL1        0.4186
     42 F         139.3737  143.1559  170.9592 F       1  UNL1       -0.1659
     43 F         140.2851  144.0413  169.2606 F       1  UNL1       -0.1659
     44 F         139.8006  141.2283  170.1835 F       1  UNL1       -0.1659
     45 C         142.9346  139.0280  167.3495 C.3     1  UNL1        0.4186
     46 F         143.7113  137.7457  167.4005 F       1  UNL1       -0.1659
     47 F         143.2706  139.1738  165.8949 F       1  UNL1       -0.1659
     48 F         142.5986  138.8822  168.8041 F       1  UNL1       -0.1659
@<TRIPOS>UNITY_ATOM_ATTR
21 1
charge -1
@<TRIPOS>BOND
     1    25    26    1
     2    26     1    1
     3     1     2   ar
     4     2     3   ar
     5     3     4   ar
     6     4     7    1
     7     7     8   ar
     8     8     9   ar
     9     9    13    1
    10    13    14   ar
    11    14    15   ar
    12    15    16   ar
    13    16    20    1
    14    20    21   ar
    15    20    22   ar
    16    16    17   ar
    17    17    18   ar
    18    18    19    1
    19     9    10   ar
    20    10    11   ar
    21    11    12   ar
    22    12    23    1
    23    23    24    1
    24     4     5   ar
    25     5    27    1
    26    27    28    1
    27    28    29   am
    28    29    30    2
    29    29    31    1
    30    31    32    1
    31    32    35    1
    32    35    36   ar
    33    36    37   ar
    34    37    41    1
    35    41    42    1
    36    41    43    1
    37    41    44    1
    38    37    38   ar
    39    38    39   ar
    40    39    45    1
    41    45    46    1
    42    45    47    1
    43    45    48    1
    44    39    40   ar
    45    32    33    1
    46    33    34    1
    47     5     6   ar
    48     6     1   ar
    49    12     7   ar
    50    33    28    1
    51    18    13   ar
    52    40    35   ar
@<TRIPOS>MOLECULE
*****
 48 52 0 0 0
SMALL
GASTEIGER

@<TRIPOS>ATOM
      1 C         142.8035  137.0195  156.6256 C.ar    1  UNL1        0.1388
      2 N         141.3194  136.8116  156.5610 N.ar    1  UNL1       -0.2292
      3 C         140.4058  137.6649  157.3899 C.ar    1  UNL1        0.1015
      4 C         140.9762  138.7261  158.2834 C.ar    1  UNL1        0.0374
      5 C         142.4603  138.9339  158.3481 C.ar    1  UNL1        0.0821
      6 N         143.3739  138.0806  157.5192 N.ar    1  UNL1       -0.2333
      7 C         140.0625  139.5794  159.1123 C.ar    1  UNL1        0.0367
      8 C         139.8299  139.2461  160.5562 C.ar    1  UNL1        0.0031
      9 C         138.9162  140.0994  161.3851 C.ar    1  UNL1       -0.0001
     10 C         138.2352  141.2859  160.7702 C.ar    1  UNL1        0.0031
     11 C         138.4678  141.6192  159.3263 C.ar    1  UNL1        0.0369
     12 C         139.3815  140.7659  158.4974 C.ar    1  UNL1        0.1387
     13 C         138.6836  139.7660  162.8290 C.ar    1  UNL1       -0.0039
     14 C         139.0983  138.4284  163.3662 C.ar    1  UNL1       -0.0003
     15 C         138.8657  138.0950  164.8101 C.ar    1  UNL1        0.0011
     16 C         138.2183  139.0994  165.7168 C.ar    1  UNL1        0.0137
     17 C         137.8036  140.4372  165.1796 C.ar    1  UNL1       -0.0031
     18 C         138.0363  140.7705  163.7357 C.ar    1  UNL1       -0.0218
     19 C         137.6216  142.1082  163.1985 C.3     1  UNL1        0.0310
     20 C         137.9857  138.7662  167.1607 C.2     1  UNL1        0.0729
     21 O         136.9565  137.7422  167.5377 O.co2   1  UNL1       -0.5446
     22 O         138.7823  139.4569  168.2276 O.co2   1  UNL1       -0.5446
     23 O         139.6141  141.0993  157.0535 O.3     1  UNL1       -0.4714
     24 C         138.6106  140.6873  156.0176 C.3     1  UNL1        0.2525
     25 C         143.7799  134.6861  156.0322 C.3     1  UNL1        0.0084
     26 C         143.7172  136.1662  155.7967 C.3     1  UNL1        0.0657
     27 C         143.0308  139.9951  159.2417 C.3     1  UNL1        0.1427
     28 N         142.9434  139.8475  160.7318 N.am    1  UNL1       -0.2380
     29 C         143.3933  138.6584  161.5278 C.2     1  UNL1        0.4055
     30 O         144.0096  137.4083  160.9735 O.2     1  UNL1       -0.2262
     31 O         143.1188  138.9390  162.9755 O.3     1  UNL1       -0.4320
     32 C         142.4991  140.3015  163.0743 C.3     1  UNL1        0.2107
     33 C         142.3908  140.8629  161.6876 C.3     1  UNL1        0.1233
     34 C         141.8285  142.2044  161.3210 C.3     1  UNL1        0.0258
     35 C         142.0643  140.9828  164.3378 C.ar    1  UNL1        0.0189
     36 C         141.1358  142.1592  164.2743 C.ar    1  UNL1        0.0031
     37 C         140.7009  142.8405  165.5379 C.ar    1  UNL1        0.0712
     38 C         141.1945  142.3455  166.8650 C.ar    1  UNL1        0.0077
     39 C         142.1230  141.1692  166.9286 C.ar    1  UNL1        0.0712
     40 C         142.5579  140.4878  165.6650 C.ar    1  UNL1        0.0031
     41 C         139.7724  144.0169  165.4743 C.3     1  UNL1        0.4186
     42 F         138.8438  145.1933  165.4106 F       1  UNL1       -0.1659
     43 F         139.6183  143.9760  166.9657 F       1  UNL1       -0.1659
     44 F         139.9265  144.0578  163.9828 F       1  UNL1       -0.1659
     45 C         142.6167  140.6742  168.2557 C.3     1  UNL1        0.4186
     46 F         143.1103  140.1792  169.5829 F       1  UNL1       -0.1659
     47 F         141.8673  139.3903  168.0556 F       1  UNL1       -0.1659
     48 F         143.3660  141.9581  168.4559 F       1  UNL1       -0.1659
@<TRIPOS>UNITY_ATOM_ATTR
21 1
charge -1
@<TRIPOS>BOND
     1    25    26    1
     2    26     1    1
     3     1     2   ar
     4     2     3   ar
     5     3     4   ar
     6     4     7    1
     7     7     8   ar
     8     8     9   ar
     9     9    13    1
    10    13    14   ar
    11    14    15   ar
    12    15    16   ar
    13    16    20    1
    14    20    21   ar
    15    20    22   ar
    16    16    17   ar
    17    17    18   ar
    18    18    19    1
    19     9    10   ar
    20    10    11   ar
    21    11    12   ar
    22    12    23    1
    23    23    24    1
    24     4     5   ar
    25     5    27    1
    26    27    28    1
    27    28    29   am
    28    29    30    2
    29    29    31    1
    30    31    32    1
    31    32    35    1
    32    35    36   ar
    33    36    37   ar
    34    37    41    1
    35    41    42    1
    36    41    43    1
    37    41    44    1
    38    37    38   ar
    39    38    39   ar
    40    39    45    1
    41    45    46    1
    42    45    47    1
    43    45    48    1
    44    39    40   ar
    45    32    33    1
    46    33    34    1
    47     5     6   ar
    48     6     1   ar
    49    12     7   ar
    50    33    28    1
    51    18    13   ar
    52    40    35   ar
@<TRIPOS>MOLECULE
*****
 48 52 0 0 0
SMALL
GASTEIGER

@<TRIPOS>ATOM
      1 C         142.8030  136.9784  156.5446 C.ar    1  UNL1        0.1388
      2 N         141.3212  136.7722  156.4363 N.ar    1  UNL1       -0.2292
      3 C         140.3856  137.6076  157.2590 C.ar    1  UNL1        0.1015
      4 C         140.9318  138.6492  158.1900 C.ar    1  UNL1        0.0374
      5 C         142.4136  138.8553  158.2983 C.ar    1  UNL1        0.0821
      6 N         143.3492  138.0199  157.4756 N.ar    1  UNL1       -0.2333
      7 C         139.9963  139.4846  159.0127 C.ar    1  UNL1        0.0367
      8 C         139.7864  139.1674  160.4636 C.ar    1  UNL1        0.0031
      9 C         138.8509  140.0028  161.2863 C.ar    1  UNL1       -0.0001
     10 C         138.1251  141.1554  160.6581 C.ar    1  UNL1        0.0031
     11 C         138.3350  141.4726  159.2071 C.ar    1  UNL1        0.0369
     12 C         139.2705  140.6372  158.3844 C.ar    1  UNL1        0.1387
     13 C         138.6411  139.6855  162.7374 C.ar    1  UNL1       -0.0039
     14 C         139.0191  138.3361  163.2723 C.ar    1  UNL1       -0.0003
     15 C         138.8093  138.0189  164.7234 C.ar    1  UNL1        0.0011
     16 C         138.2214  139.0510  165.6394 C.ar    1  UNL1        0.0137
     17 C         137.8434  140.4005  165.1043 C.ar    1  UNL1       -0.0031
     18 C         138.0532  140.7177  163.6534 C.ar    1  UNL1       -0.0218
     19 C         137.6752  142.0671  163.1183 C.3     1  UNL1        0.0310
     20 C         138.0116  138.7338  167.0903 C.2     1  UNL1        0.0729
     21 O         138.8272  139.4338  168.1366 O.co2   1  UNL1       -0.5446
     22 O         136.9862  137.7166  167.4949 O.co2   1  UNL1       -0.5446
     23 O         139.4803  140.9544  156.9334 O.3     1  UNL1       -0.4714
     24 C         138.4296  140.5907  155.9266 C.3     1  UNL1        0.2525
     25 C         143.7474  134.6513  155.8792 C.3     1  UNL1        0.0084
     26 C         143.7386  136.1430  155.7219 C.3     1  UNL1        0.0657
     27 C         142.9599  139.8969  159.2294 C.3     1  UNL1        0.1427
     28 N         142.8882  139.6884  160.7130 N.am    1  UNL1       -0.2380
     29 C         143.3542  138.4715  161.4559 C.2     1  UNL1        0.4055
     30 O         143.9738  137.2494  160.8456 O.2     1  UNL1       -0.2262
     31 O         143.0918  138.6912  162.9164 O.3     1  UNL1       -0.4320
     32 C         142.4636  140.0440  163.0761 C.3     1  UNL1        0.2107
     33 C         142.3377  140.6602  161.7144 C.3     1  UNL1        0.1233
     34 C         141.7625  142.0112  161.4078 C.3     1  UNL1        0.0258
     35 C         142.0363  140.6704  164.3703 C.ar    1  UNL1        0.0189
     36 C         142.4472  140.0530  165.6741 C.ar    1  UNL1        0.0031
     37 C         142.0199  140.6794  166.9683 C.ar    1  UNL1        0.0712
     38 C         141.1817  141.9233  166.9587 C.ar    1  UNL1        0.0077
     39 C         140.7708  142.5408  165.6549 C.ar    1  UNL1        0.0712
     40 C         141.1981  141.9143  164.3607 C.ar    1  UNL1        0.0031
     41 C         142.4308  140.0619  168.2720 C.3     1  UNL1        0.4186
     42 F         142.8417  139.4444  169.5759 F       1  UNL1       -0.1659
     43 F         142.8661  138.8226  167.5479 F       1  UNL1       -0.1659
     44 F         141.9955  141.3013  168.9962 F       1  UNL1       -0.1659
     45 C         139.9326  143.7847  165.6454 C.3     1  UNL1        0.4186
     46 F         139.0944  145.0286  165.6358 F       1  UNL1       -0.1659
     47 F         139.7405  143.6667  167.1283 F       1  UNL1       -0.1659
     48 F         140.1247  143.9028  164.1624 F       1  UNL1       -0.1659
@<TRIPOS>UNITY_ATOM_ATTR
21 1
charge -1
@<TRIPOS>BOND
     1    25    26    1
     2    26     1    1
     3     1     2   ar
     4     2     3   ar
     5     3     4   ar
     6     4     7    1
     7     7     8   ar
     8     8     9   ar
     9     9    13    1
    10    13    14   ar
    11    14    15   ar
    12    15    16   ar
    13    16    20    1
    14    20    21   ar
    15    20    22   ar
    16    16    17   ar
    17    17    18   ar
    18    18    19    1
    19     9    10   ar
    20    10    11   ar
    21    11    12   ar
    22    12    23    1
    23    23    24    1
    24     4     5   ar
    25     5    27    1
    26    27    28    1
    27    28    29   am
    28    29    30    2
    29    29    31    1
    30    31    32    1
    31    32    35    1
    32    35    36   ar
    33    36    37   ar
    34    37    41    1
    35    41    42    1
    36    41    43    1
    37    41    44    1
    38    37    38   ar
    39    38    39   ar
    40    39    45    1
    41    45    46    1
    42    45    47    1
    43    45    48    1
    44    39    40   ar
    45    32    33    1
    46    33    34    1
    47     5     6   ar
    48     6     1   ar
    49    12     7   ar
    50    33    28    1
    51    18    13   ar
    52    40    35   ar
@<TRIPOS>MOLECULE
*****
 48 52 0 0 0
SMALL
GASTEIGER

@<TRIPOS>ATOM
      1 C         140.3818  145.0980  157.6573 C.ar    1  UNL1        0.1388
      2 N         141.5891  144.3343  157.2000 N.ar    1  UNL1       -0.2292
      3 C         141.8262  142.9388  157.6964 C.ar    1  UNL1        0.1015
      4 C         140.8561  142.3070  158.6500 C.ar    1  UNL1        0.0374
      5 C         139.6488  143.0707  159.1073 C.ar    1  UNL1        0.0821
      6 N         139.4117  144.4662  158.6110 N.ar    1  UNL1       -0.2333
      7 C         141.0932  140.9115  159.1464 C.ar    1  UNL1        0.0367
      8 C         141.5453  140.6844  160.5585 C.ar    1  UNL1        0.0031
      9 C         141.7824  139.2889  161.0548 C.ar    1  UNL1       -0.0001
     10 C         141.5674  138.1205  160.1392 C.ar    1  UNL1        0.0031
     11 C         141.1152  138.3476  158.7271 C.ar    1  UNL1        0.0369
     12 C         140.8781  139.7431  158.2307 C.ar    1  UNL1        0.1387
     13 C         142.2346  139.0619  162.4670 C.ar    1  UNL1       -0.0039
     14 C         141.3360  138.3549  163.4378 C.ar    1  UNL1       -0.0003
     15 C         141.7882  138.1279  164.8499 C.ar    1  UNL1        0.0011
     16 C         143.1390  138.6078  165.2912 C.ar    1  UNL1        0.0137
     17 C         144.0377  139.3149  164.3203 C.ar    1  UNL1       -0.0031
     18 C         143.5855  139.5419  162.9082 C.ar    1  UNL1       -0.0218
     19 C         144.4842  140.2489  161.9373 C.3     1  UNL1        0.0310
     20 C         143.5913  138.3808  166.7032 C.2     1  UNL1        0.0729
     21 O         143.0846  139.2645  167.8043 O.co2   1  UNL1       -0.5446
     22 O         144.5502  137.2701  167.0142 O.co2   1  UNL1       -0.5446
     23 O         140.4259  139.9701  156.8186 O.3     1  UNL1       -0.4714
     24 C         139.3959  139.0676  156.2067 C.3     1  UNL1        0.2525
     25 C         139.2795  146.7246  155.9577 C.3     1  UNL1        0.0084
     26 C         140.1447  146.4935  157.1609 C.3     1  UNL1        0.0657
     27 C         138.6785  142.4389  160.0611 C.3     1  UNL1        0.1427
     28 N         138.8854  142.5739  161.5406 N.am    1  UNL1       -0.2380
     29 C         139.1662  143.8491  162.2788 C.2     1  UNL1        0.4055
     30 O         139.2896  145.2132  161.6671 O.2     1  UNL1       -0.2262
     31 O         139.3021  143.5208  163.7361 O.3     1  UNL1       -0.4320
     32 C         139.1052  142.0426  163.8985 C.3     1  UNL1        0.2107
     33 C         138.8477  141.4575  162.5416 C.3     1  UNL1        0.1233
     34 C         138.5965  140.0100  162.2389 C.3     1  UNL1        0.0258
     35 C         139.1569  141.2831  165.1910 C.ar    1  UNL1        0.0189
     36 C         139.8897  141.8548  166.3682 C.ar    1  UNL1        0.0031
     37 C         139.9414  141.0953  167.6606 C.ar    1  UNL1        0.0712
     38 C         139.2601  139.7640  167.7758 C.ar    1  UNL1        0.0077
     39 C         138.5272  139.1921  166.5986 C.ar    1  UNL1        0.0712
     40 C         138.4756  139.9517  165.3062 C.ar    1  UNL1        0.0031
     41 C         140.6743  141.6671  168.8378 C.3     1  UNL1        0.4186
     42 F         141.4072  142.2390  170.0151 F       1  UNL1       -0.1659
     43 F         141.7828  142.1131  167.9311 F       1  UNL1       -0.1659
     44 F         139.5658  141.2211  169.7446 F       1  UNL1       -0.1659
     45 C         137.8459  137.8607  166.7138 C.3     1  UNL1        0.4186
     46 F         137.1646  136.5293  166.8291 F       1  UNL1       -0.1659
     47 F         138.6776  137.3371  165.5806 F       1  UNL1       -0.1659
     48 F         137.0142  138.3844  167.8470 F       1  UNL1       -0.1659
@<TRIPOS>UNITY_ATOM_ATTR
21 1
charge -1
@<TRIPOS>BOND
     1    25    26    1
     2    26     1    1
     3     1     2   ar
     4     2     3   ar
     5     3     4   ar
     6     4     7    1
     7     7     8   ar
     8     8     9   ar
     9     9    13    1
    10    13    14   ar
    11    14    15   ar
    12    15    16   ar
    13    16    20    1
    14    20    21   ar
    15    20    22   ar
    16    16    17   ar
    17    17    18   ar
    18    18    19    1
    19     9    10   ar
    20    10    11   ar
    21    11    12   ar
    22    12    23    1
    23    23    24    1
    24     4     5   ar
    25     5    27    1
    26    27    28    1
    27    28    29   am
    28    29    30    2
    29    29    31    1
    30    31    32    1
    31    32    35    1
    32    35    36   ar
    33    36    37   ar
    34    37    41    1
    35    41    42    1
    36    41    43    1
    37    41    44    1
    38    37    38   ar
    39    38    39   ar
    40    39    45    1
    41    45    46    1
    42    45    47    1
    43    45    48    1
    44    39    40   ar
    45    32    33    1
    46    33    34    1
    47     5     6   ar
    48     6     1   ar
    49    12     7   ar
    50    33    28    1
    51    18    13   ar
    52    40    35   ar
@<TRIPOS>MOLECULE
*****
 48 52 0 0 0
SMALL
GASTEIGER

@<TRIPOS>ATOM
      1 C         140.5528  145.4539  157.7562 C.ar    1  UNL1        0.1388
      2 N         142.0298  145.1952  157.7941 N.ar    1  UNL1       -0.2292
      3 C         142.5701  144.0484  158.5959 C.ar    1  UNL1        0.1015
      4 C         141.6333  143.1601  159.3597 C.ar    1  UNL1        0.0374
      5 C         140.1563  143.4188  159.3218 C.ar    1  UNL1        0.0821
      6 N         139.6160  144.5657  158.5200 N.ar    1  UNL1       -0.2333
      7 C         142.1735  142.0133  160.1615 C.ar    1  UNL1        0.0367
      8 C         142.2929  142.1306  161.6521 C.ar    1  UNL1        0.0031
      9 C         142.8331  140.9837  162.4538 C.ar    1  UNL1       -0.0001
     10 C         143.2540  139.7195  161.7650 C.ar    1  UNL1        0.0031
     11 C         143.1346  139.6021  160.2744 C.ar    1  UNL1        0.0369
     12 C         142.5944  140.7490  159.4726 C.ar    1  UNL1        0.1387
     13 C         142.9525  141.1011  163.9445 C.ar    1  UNL1       -0.0039
     14 C         143.4747  142.3665  164.5577 C.ar    1  UNL1       -0.0003
     15 C         143.5941  142.4839  166.0484 C.ar    1  UNL1        0.0011
     16 C         143.1913  141.3359  166.9258 C.ar    1  UNL1        0.0137
     17 C         142.6691  140.0705  166.3125 C.ar    1  UNL1       -0.0031
     18 C         142.5497  139.9531  164.8219 C.ar    1  UNL1       -0.0218
     19 C         142.0275  138.6877  164.2086 C.3     1  UNL1        0.0310
     20 C         143.3106  141.4533  168.4164 C.2     1  UNL1        0.0729
     21 O         143.1330  140.2403  169.2808 O.co2   1  UNL1       -0.5446
     22 O         143.6076  142.7835  169.0425 O.co2   1  UNL1       -0.5446
     23 O         142.4750  140.6316  157.9820 O.3     1  UNL1       -0.4714
     24 C         143.6997  140.7294  157.1215 C.3     1  UNL1        0.2525
     25 C         140.1875  146.6228  155.4649 C.3     1  UNL1        0.0084
     26 C         140.0126  146.6008  156.9545 C.3     1  UNL1        0.0657
     27 C         139.2194  142.5306  160.0856 C.3     1  UNL1        0.1427
     28 N         139.1227  142.6491  161.5778 N.am    1  UNL1       -0.2380
     29 C         138.9566  143.9231  162.3520 C.2     1  UNL1        0.4055
     30 O         138.8581  145.3021  161.7701 O.2     1  UNL1       -0.2262
     31 O         138.9064  143.5759  163.8104 O.3     1  UNL1       -0.4320
     32 C         139.0414  142.0873  163.9375 C.3     1  UNL1        0.2107
     33 C         139.1751  141.5146  162.5577 C.3     1  UNL1        0.1233
     34 C         139.3334  140.0623  162.2174 C.3     1  UNL1        0.0258
     35 C         139.0426  141.3084  165.2194 C.ar    1  UNL1        0.0189
     36 C         138.4930  139.9131  165.2496 C.ar    1  UNL1        0.0031
     37 C         138.4941  139.1341  166.5315 C.ar    1  UNL1        0.0712
     38 C         139.0448  139.7505  167.7831 C.ar    1  UNL1        0.0077
     39 C         139.5944  141.1458  167.7530 C.ar    1  UNL1        0.0712
     40 C         139.5933  141.9248  166.4711 C.ar    1  UNL1        0.0031
     41 C         137.9445  137.7388  166.5616 C.3     1  UNL1        0.4186
     42 F         137.3949  136.3434  166.5917 F       1  UNL1       -0.1659
     43 F         136.9982  138.1351  167.6559 F       1  UNL1       -0.1659
     44 F         138.8908  137.3424  165.4674 F       1  UNL1       -0.1659
     45 C         140.1452  141.7622  169.0047 C.3     1  UNL1        0.4186
     46 F         140.6959  142.3786  170.2564 F       1  UNL1       -0.1659
     47 F         139.9474  140.4646  169.7307 F       1  UNL1       -0.1659
     48 F         140.3430  143.0598  168.2787 F       1  UNL1       -0.1659
@<TRIPOS>UNITY_ATOM_ATTR
21 1
charge -1
@<TRIPOS>BOND
     1    25    26    1
     2    26     1    1
     3     1     2   ar
     4     2     3   ar
     5     3     4   ar
     6     4     7    1
     7     7     8   ar
     8     8     9   ar
     9     9    13    1
    10    13    14   ar
    11    14    15   ar
    12    15    16   ar
    13    16    20    1
    14    20    21   ar
    15    20    22   ar
    16    16    17   ar
    17    17    18   ar
    18    18    19    1
    19     9    10   ar
    20    10    11   ar
    21    11    12   ar
    22    12    23    1
    23    23    24    1
    24     4     5   ar
    25     5    27    1
    26    27    28    1
    27    28    29   am
    28    29    30    2
    29    29    31    1
    30    31    32    1
    31    32    35    1
    32    35    36   ar
    33    36    37   ar
    34    37    41    1
    35    41    42    1
    36    41    43    1
    37    41    44    1
    38    37    38   ar
    39    38    39   ar
    40    39    45    1
    41    45    46    1
    42    45    47    1
    43    45    48    1
    44    39    40   ar
    45    32    33    1
    46    33    34    1
    47     5     6   ar
    48     6     1   ar
    49    12     7   ar
    50    33    28    1
    51    18    13   ar
    52    40    35   ar
@<TRIPOS>MOLECULE
*****
 48 52 0 0 0
SMALL
GASTEIGER

@<TRIPOS>ATOM
      1 C         144.9184  141.8414  158.0170 C.ar    1  UNL1        0.1388
      2 N         144.3711  140.4581  157.8253 N.ar    1  UNL1       -0.2292
      3 C         142.9882  140.1259  158.3019 C.ar    1  UNL1        0.1015
      4 C         142.1526  141.1770  158.9702 C.ar    1  UNL1        0.0374
      5 C         142.6998  142.5604  159.1619 C.ar    1  UNL1        0.0821
      6 N         144.0828  142.8925  158.6853 N.ar    1  UNL1       -0.2333
      7 C         140.7697  140.8448  159.4469 C.ar    1  UNL1        0.0367
      8 C         140.5365  140.4944  160.8866 C.ar    1  UNL1        0.0031
      9 C         139.1536  140.1622  161.3632 C.ar    1  UNL1       -0.0001
     10 C         138.0038  140.1804  160.4002 C.ar    1  UNL1        0.0031
     11 C         138.2369  140.5308  158.9604 C.ar    1  UNL1        0.0369
     12 C         139.6198  140.8630  158.4838 C.ar    1  UNL1        0.1387
     13 C         138.9206  139.8118  162.8030 C.ar    1  UNL1       -0.0039
     14 C         138.1061  140.7217  163.6740 C.ar    1  UNL1       -0.0003
     15 C         137.8731  140.3712  165.1138 C.ar    1  UNL1        0.0011
     16 C         138.4545  139.1109  165.6825 C.ar    1  UNL1        0.0137
     17 C         139.2689  138.2009  164.8114 C.ar    1  UNL1       -0.0031
     18 C         139.5019  138.5514  163.3717 C.ar    1  UNL1       -0.0218
     19 C         140.3164  137.6414  162.5006 C.3     1  UNL1        0.0310
     20 C         138.2214  138.7604  167.1223 C.2     1  UNL1        0.0729
     21 O         138.9838  139.4722  168.2003 O.co2   1  UNL1       -0.5446
     22 O         137.2260  137.6982  167.4839 O.co2   1  UNL1       -0.5446
     23 O         139.8529  141.2135  157.0440 O.3     1  UNL1       -0.4714
     24 C         139.8595  140.1353  156.0013 C.3     1  UNL1        0.2525
     25 C         146.5595  142.3879  156.0784 C.3     1  UNL1        0.0084
     26 C         146.3013  142.1736  157.5403 C.3     1  UNL1        0.0657
     27 C         141.8642  143.6116  159.8303 C.3     1  UNL1        0.1427
     28 N         141.3309  143.3789  161.2128 N.am    1  UNL1       -0.2380
     29 C         139.9862  143.8054  161.7225 C.2     1  UNL1        0.4055
     30 O         138.9387  144.5395  160.9392 O.2     1  UNL1       -0.2262
     31 O         139.8729  143.3689  163.1531 O.3     1  UNL1       -0.4320
     32 C         141.1477  142.6726  163.5277 C.3     1  UNL1        0.2107
     33 C         142.0488  142.6788  162.3285 C.3     1  UNL1        0.1233
     34 C         143.4259  142.0885  162.2574 C.3     1  UNL1        0.0258
     35 C         141.4655  142.0751  164.8663 C.ar    1  UNL1        0.0189
     36 C         141.1038  142.8121  166.1216 C.ar    1  UNL1        0.0031
     37 C         141.4216  142.2146  167.4602 C.ar    1  UNL1        0.0712
     38 C         142.1012  140.8801  167.5435 C.ar    1  UNL1        0.0077
     39 C         142.4630  140.1429  166.2882 C.ar    1  UNL1        0.0712
     40 C         142.1452  140.7405  164.9496 C.ar    1  UNL1        0.0031
     41 C         141.0599  142.9517  168.7155 C.3     1  UNL1        0.4186
     42 F         140.6980  143.6889  169.9708 F       1  UNL1       -0.1659
     43 F         142.1325  142.2124  169.4588 F       1  UNL1       -0.1659
     44 F         139.9871  143.6911  167.9721 F       1  UNL1       -0.1659
     45 C         143.1426  138.8083  166.3715 C.3     1  UNL1        0.4186
     46 F         143.8222  137.4737  166.4549 F       1  UNL1       -0.1659
     47 F         143.1036  138.6951  164.8763 F       1  UNL1       -0.1659
     48 F         143.1816  138.9215  167.8668 F       1  UNL1       -0.1659
@<TRIPOS>UNITY_ATOM_ATTR
21 1
charge -1
@<TRIPOS>BOND
     1    25    26    1
     2    26     1    1
     3     1     2   ar
     4     2     3   ar
     5     3     4   ar
     6     4     7    1
     7     7     8   ar
     8     8     9   ar
     9     9    13    1
    10    13    14   ar
    11    14    15   ar
    12    15    16   ar
    13    16    20    1
    14    20    21   ar
    15    20    22   ar
    16    16    17   ar
    17    17    18   ar
    18    18    19    1
    19     9    10   ar
    20    10    11   ar
    21    11    12   ar
    22    12    23    1
    23    23    24    1
    24     4     5   ar
    25     5    27    1
    26    27    28    1
    27    28    29   am
    28    29    30    2
    29    29    31    1
    30    31    32    1
    31    32    35    1
    32    35    36   ar
    33    36    37   ar
    34    37    41    1
    35    41    42    1
    36    41    43    1
    37    41    44    1
    38    37    38   ar
    39    38    39   ar
    40    39    45    1
    41    45    46    1
    42    45    47    1
    43    45    48    1
    44    39    40   ar
    45    32    33    1
    46    33    34    1
    47     5     6   ar
    48     6     1   ar
    49    12     7   ar
    50    33    28    1
    51    18    13   ar
    52    40    35   ar
@<TRIPOS>MOLECULE
*****
 48 52 0 0 0
SMALL
GASTEIGER

@<TRIPOS>ATOM
      1 C         142.3119  136.6393  156.2652 C.ar    1  UNL1        0.1388
      2 N         140.8250  136.7983  156.3824 N.ar    1  UNL1       -0.2292
      3 C         140.2517  137.8344  157.3033 C.ar    1  UNL1        0.1015
      4 C         141.1654  138.7115  158.1069 C.ar    1  UNL1        0.0374
      5 C         142.6523  138.5525  157.9897 C.ar    1  UNL1        0.0821
      6 N         143.2255  137.5164  157.0689 N.ar    1  UNL1       -0.2333
      7 C         140.5922  139.7476  159.0278 C.ar    1  UNL1        0.0367
      8 C         140.2594  139.3890  160.4457 C.ar    1  UNL1        0.0031
      9 C         139.6861  140.4251  161.3666 C.ar    1  UNL1       -0.0001
     10 C         139.4457  141.8197  160.8695 C.ar    1  UNL1        0.0031
     11 C         139.7785  142.1783  159.4515 C.ar    1  UNL1        0.0369
     12 C         140.3518  141.1422  158.5307 C.ar    1  UNL1        0.1387
     13 C         139.3533  140.0665  162.7846 C.ar    1  UNL1       -0.0039
     14 C         138.7561  138.7269  163.0990 C.ar    1  UNL1       -0.0003
     15 C         138.4233  138.3683  164.5171 C.ar    1  UNL1        0.0011
     16 C         138.6877  139.3493  165.6206 C.ar    1  UNL1        0.0137
     17 C         139.2850  140.6889  165.3061 C.ar    1  UNL1       -0.0031
     18 C         139.6178  141.0474  163.8881 C.ar    1  UNL1       -0.0218
     19 C         140.2150  142.3870  163.5736 C.3     1  UNL1        0.0310
     20 C         138.3549  138.9907  167.0385 C.2     1  UNL1        0.0729
     21 O         139.1234  139.6090  168.1686 O.co2   1  UNL1       -0.5446
     22 O         137.2537  138.0139  167.3264 O.co2   1  UNL1       -0.5446
     23 O         140.6846  141.5008  157.1127 O.3     1  UNL1       -0.4714
     24 C         140.1598  142.7740  156.5181 C.3     1  UNL1        0.2525
     25 C         142.1725  135.2546  154.0714 C.3     1  UNL1        0.0084
     26 C         142.8851  135.6032  155.3444 C.3     1  UNL1        0.0657
     27 C         143.5661  139.4295  158.7934 C.3     1  UNL1        0.1427
     28 N         143.5769  139.3296  160.2900 N.am    1  UNL1       -0.2380
     29 C         143.6911  138.0649  161.0884 C.2     1  UNL1        0.4055
     30 O         143.8145  136.6780  160.5303 O.2     1  UNL1       -0.2262
     31 O         143.6603  138.4304  162.5428 O.3     1  UNL1       -0.4320
     32 C         143.5270  139.9211  162.6434 C.3     1  UNL1        0.2107
     33 C         143.4755  140.4768  161.2511 C.3     1  UNL1        0.1233
     34 C         143.3454  141.9254  160.8842 C.3     1  UNL1        0.0258
     35 C         143.4574  140.7165  163.9133 C.ar    1  UNL1        0.0189
     36 C         143.8218  142.1714  163.9079 C.ar    1  UNL1        0.0031
     37 C         143.7523  142.9668  165.1778 C.ar    1  UNL1        0.0712
     38 C         143.3183  142.3071  166.4530 C.ar    1  UNL1        0.0077
     39 C         142.9538  140.8520  166.4585 C.ar    1  UNL1        0.0712
     40 C         143.0234  140.0567  165.1886 C.ar    1  UNL1        0.0031
     41 C         144.1167  144.4218  165.1723 C.3     1  UNL1        0.4186
     42 F         144.4812  145.8769  165.1669 F       1  UNL1       -0.1659
     43 F         142.9851  144.7018  164.2284 F       1  UNL1       -0.1659
     44 F         145.2483  144.1419  166.1163 F       1  UNL1       -0.1659
     45 C         142.5198  140.1923  167.7338 C.3     1  UNL1        0.4186
     46 F         142.0858  139.5326  169.0091 F       1  UNL1       -0.1659
     47 F         143.1055  138.8945  167.2617 F       1  UNL1       -0.1659
     48 F         141.9342  141.4901  168.2058 F       1  UNL1       -0.1659
@<TRIPOS>UNITY_ATOM_ATTR
21 1
charge -1
@<TRIPOS>BOND
     1    25    26    1
     2    26     1    1
     3     1     2   ar
     4     2     3   ar
     5     3     4   ar
     6     4     7    1
     7     7     8   ar
     8     8     9   ar
     9     9    13    1
    10    13    14   ar
    11    14    15   ar
    12    15    16   ar
    13    16    20    1
    14    20    21   ar
    15    20    22   ar
    16    16    17   ar
    17    17    18   ar
    18    18    19    1
    19     9    10   ar
    20    10    11   ar
    21    11    12   ar
    22    12    23    1
    23    23    24    1
    24     4     5   ar
    25     5    27    1
    26    27    28    1
    27    28    29   am
    28    29    30    2
    29    29    31    1
    30    31    32    1
    31    32    35    1
    32    35    36   ar
    33    36    37   ar
    34    37    41    1
    35    41    42    1
    36    41    43    1
    37    41    44    1
    38    37    38   ar
    39    38    39   ar
    40    39    45    1
    41    45    46    1
    42    45    47    1
    43    45    48    1
    44    39    40   ar
    45    32    33    1
    46    33    34    1
    47     5     6   ar
    48     6     1   ar
    49    12     7   ar
    50    33    28    1
    51    18    13   ar
    52    40    35   ar
@<TRIPOS>MOLECULE
*****
 48 52 0 0 0
SMALL
GASTEIGER

@<TRIPOS>ATOM
      1 C         144.4007  140.5129  156.4552 C.ar    1  UNL1        0.1388
      2 N         145.2465  141.4843  157.2240 N.ar    1  UNL1       -0.2292
      3 C         144.6268  142.3382  158.2902 C.ar    1  UNL1        0.1015
      4 C         143.1613  142.2207  158.5877 C.ar    1  UNL1        0.0374
      5 C         142.3155  141.2493  157.8190 C.ar    1  UNL1        0.0821
      6 N         142.9352  140.3954  156.7527 N.ar    1  UNL1       -0.2333
      7 C         142.5416  143.0746  159.6539 C.ar    1  UNL1        0.0367
      8 C         142.7010  142.7039  161.0986 C.ar    1  UNL1        0.0031
      9 C         142.0814  143.5578  162.1648 C.ar    1  UNL1       -0.0001
     10 C         141.3023  144.7824  161.7864 C.ar    1  UNL1        0.0031
     11 C         141.1429  145.1532  160.3417 C.ar    1  UNL1        0.0369
     12 C         141.7626  144.2993  159.2755 C.ar    1  UNL1        0.1387
     13 C         142.2408  143.1870  163.6096 C.ar    1  UNL1       -0.0039
     14 C         143.5933  142.8213  164.1451 C.ar    1  UNL1       -0.0003
     15 C         143.7527  142.4505  165.5899 C.ar    1  UNL1        0.0011
     16 C         142.5596  142.4454  166.4990 C.ar    1  UNL1        0.0137
     17 C         141.2070  142.8112  165.9633 C.ar    1  UNL1       -0.0031
     18 C         141.0477  143.1820  164.5186 C.ar    1  UNL1       -0.0218
     19 C         139.6951  143.5477  163.9830 C.3     1  UNL1        0.0310
     20 C         142.7190  142.0747  167.9436 C.2     1  UNL1        0.0729
     21 O         143.8240  142.6817  168.7562 O.co2   1  UNL1       -0.5446
     22 O         141.7733  141.0969  168.5756 O.co2   1  UNL1       -0.5446
     23 O         141.6031  144.6701  157.8308 O.3     1  UNL1       -0.4714
     24 C         142.1879  145.9520  157.3165 C.3     1  UNL1        0.2525
     25 C         144.4299  138.3190  155.0639 C.3     1  UNL1        0.0084
     26 C         145.0204  139.6590  155.3890 C.3     1  UNL1        0.0657
     27 C         140.8500  141.1318  158.1164 C.3     1  UNL1        0.1427
     28 N         140.3756  141.0729  159.5382 N.am    1  UNL1       -0.2380
     29 C         139.2660  141.8890  160.1319 C.2     1  UNL1        0.4055
     30 O         138.4358  142.9073  159.4081 O.2     1  UNL1       -0.2262
     31 O         139.1322  141.5081  161.5766 O.3     1  UNL1       -0.4320
     32 C         140.1592  140.4565  161.8757 C.3     1  UNL1        0.2107
     33 C         140.9277  140.1876  160.6159 C.3     1  UNL1        0.1233
     34 C         142.0510  139.2057  160.4610 C.3     1  UNL1        0.0258
     35 C         140.3791  139.7908  163.2018 C.ar    1  UNL1        0.0189
     36 C         139.2045  139.3448  164.0210 C.ar    1  UNL1        0.0031
     37 C         139.4244  138.6791  165.3471 C.ar    1  UNL1        0.0712
     38 C         140.8189  138.4594  165.8539 C.ar    1  UNL1        0.0077
     39 C         141.9936  138.9054  165.0347 C.ar    1  UNL1        0.0712
     40 C         141.7737  139.5711  163.7086 C.ar    1  UNL1        0.0031
     41 C         138.2497  138.2331  166.1663 C.3     1  UNL1        0.4186
     42 F         137.0749  137.7871  166.9856 F       1  UNL1       -0.1659
     43 F         138.2963  136.8893  165.5017 F       1  UNL1       -0.1659
     44 F         138.2030  139.5770  166.8310 F       1  UNL1       -0.1659
     45 C         143.3882  138.6857  165.5415 C.3     1  UNL1        0.4186
     46 F         144.7828  138.4660  166.0483 F       1  UNL1       -0.1659
     47 F         143.9040  138.7112  164.1332 F       1  UNL1       -0.1659
     48 F         142.8724  138.6602  166.9498 F       1  UNL1       -0.1659
@<TRIPOS>UNITY_ATOM_ATTR
21 1
charge -1
@<TRIPOS>BOND
     1    25    26    1
     2    26     1    1
     3     1     2   ar
     4     2     3   ar
     5     3     4   ar
     6     4     7    1
     7     7     8   ar
     8     8     9   ar
     9     9    13    1
    10    13    14   ar
    11    14    15   ar
    12    15    16   ar
    13    16    20    1
    14    20    21   ar
    15    20    22   ar
    16    16    17   ar
    17    17    18   ar
    18    18    19    1
    19     9    10   ar
    20    10    11   ar
    21    11    12   ar
    22    12    23    1
    23    23    24    1
    24     4     5   ar
    25     5    27    1
    26    27    28    1
    27    28    29   am
    28    29    30    2
    29    29    31    1
    30    31    32    1
    31    32    35    1
    32    35    36   ar
    33    36    37   ar
    34    37    41    1
    35    41    42    1
    36    41    43    1
    37    41    44    1
    38    37    38   ar
    39    38    39   ar
    40    39    45    1
    41    45    46    1
    42    45    47    1
    43    45    48    1
    44    39    40   ar
    45    32    33    1
    46    33    34    1
    47     5     6   ar
    48     6     1   ar
    49    12     7   ar
    50    33    28    1
    51    18    13   ar
    52    40    35   ar
