@<TRIPOS>MOLECULE
*****
 28 30 0 0 0
SMALL
GASTEIGER

@<TRIPOS>ATOM
      1 C         143.5273  138.2837  162.2745 C.3     1  UNL1        0.0896
      2 N         143.4551  139.4029  163.2706 N.3     1  UNL1       -0.2715
      3 C         142.4351  139.3641  164.3697 C.3     1  UNL1        0.0725
      4 C         142.3629  140.4833  165.3658 C.3     1  UNL1        0.0238
      5 C         143.3107  141.6413  165.2627 C.3     1  UNL1        0.0489
      6 C         144.3307  141.6801  164.1636 C.3     1  UNL1        0.0238
      7 C         144.4029  140.5609  163.1675 C.3     1  UNL1        0.0725
      8 C         142.5251  142.0545  166.4719 C.ar    1  UNL1       -0.0203
      9 C         141.0498  142.3007  166.3597 C.ar    1  UNL1       -0.0033
     10 C         140.2641  142.7138  167.5688 C.ar    1  UNL1        0.0111
     11 C         140.9540  142.8809  168.8903 C.ar    1  UNL1        0.0577
     12 CL        140.1684  143.2941  170.0995 Cl      1  UNL1       -0.0822
     13 C         142.4294  142.6347  169.0026 C.ar    1  UNL1        0.0111
     14 C         143.2150  142.2215  167.7934 C.ar    1  UNL1       -0.0033
     15 C         143.9857  142.9429  165.5796 C.3     1  UNL1        0.1467
     16 O         144.4638  143.8298  164.4684 O.3     1  UNL1       -0.3470
     17 C         143.6837  145.0569  164.0998 C.3     1  UNL1        0.1875
     18 C         142.3753  144.9251  163.3782 C.ar    1  UNL1        0.0897
     19 C         141.0989  144.8008  164.1563 C.ar    1  UNL1        0.0212
     20 C         139.7906  144.6691  163.4346 C.ar    1  UNL1        0.0750
     21 C         139.7585  144.6616  161.9350 C.ar    1  UNL1        0.0346
     22 C         141.0350  144.7860  161.1569 C.ar    1  UNL1        0.1380
     23 CL        141.0029  144.7785  159.6573 Cl      1  UNL1       -0.0614
     24 N         142.3434  144.9177  161.8785 N.ar    1  UNL1       -0.2358
     25 C         138.5140  144.5447  164.2126 C.3     1  UNL1        0.4187
     26 F         137.2376  144.4204  164.9905 F       1  UNL1       -0.1659
     27 F         137.8235  144.0086  162.9937 F       1  UNL1       -0.1659
     28 F         139.2047  145.0808  165.4314 F       1  UNL1       -0.1659
@<TRIPOS>BOND
     1     1     2    1
     2     2     3    1
     3     3     4    1
     4     4     5    1
     5     5    15    1
     6    15    16    1
     7    16    17    1
     8    17    18    1
     9    18    19   ar
    10    19    20   ar
    11    20    25    1
    12    25    26    1
    13    25    27    1
    14    25    28    1
    15    20    21   ar
    16    21    22   ar
    17    22    23    1
    18    22    24   ar
    19     5     8    1
    20     8     9   ar
    21     9    10   ar
    22    10    11   ar
    23    11    12    1
    24    11    13   ar
    25    13    14   ar
    26     5     6    1
    27     6     7    1
    28     7     2    1
    29    24    18   ar
    30    14     8   ar
@<TRIPOS>MOLECULE
*****
 28 30 0 0 0
SMALL
GASTEIGER

@<TRIPOS>ATOM
      1 C         137.7827  143.9475  162.9954 C.3     1  UNL1        0.0896
      2 N         138.2816  142.8350  163.8692 N.3     1  UNL1       -0.2715
      3 C         139.2051  143.1358  165.0123 C.3     1  UNL1        0.0725
      4 C         139.7041  142.0234  165.8861 C.3     1  UNL1        0.0238
      5 C         139.2795  140.6102  165.6168 C.3     1  UNL1        0.0489
      6 C         138.3560  140.3094  164.4737 C.3     1  UNL1        0.0238
      7 C         137.8571  141.4218  163.5999 C.3     1  UNL1        0.0725
      8 C         140.1621  140.3941  166.8104 C.ar    1  UNL1       -0.0203
      9 C         141.6532  140.4628  166.6629 C.ar    1  UNL1       -0.0033
     10 C         142.5357  140.2468  167.8563 C.ar    1  UNL1        0.0111
     11 C         141.9270  139.9619  169.1973 C.ar    1  UNL1        0.0577
     12 CL        142.8096  139.7458  170.3909 Cl      1  UNL1       -0.0822
     13 C         140.4359  139.8931  169.3449 C.ar    1  UNL1        0.0111
     14 C         139.5534  140.1092  168.1514 C.ar    1  UNL1       -0.0033
     15 C         139.1615  139.1218  165.7620 C.3     1  UNL1        0.1467
     16 O         139.2996  138.2376  164.5583 O.3     1  UNL1       -0.3470
     17 C         140.5225  137.3852  164.3902 C.3     1  UNL1        0.1875
     18 C         141.6376  137.8414  163.4967 C.ar    1  UNL1        0.0897
     19 C         142.7270  138.7156  164.0435 C.ar    1  UNL1        0.0212
     20 C         143.8420  139.1718  163.1499 C.ar    1  UNL1        0.0750
     21 C         143.8678  138.7538  161.7096 C.ar    1  UNL1        0.0346
     22 C         142.7783  137.8796  161.1627 C.ar    1  UNL1        0.1380
     23 CL        142.8041  137.4616  159.7224 Cl      1  UNL1       -0.0614
     24 N         141.6632  137.4234  162.0563 N.ar    1  UNL1       -0.2358
     25 C         144.9315  140.0460  163.6967 C.3     1  UNL1        0.4187
     26 F         146.0209  140.9202  164.2435 F       1  UNL1       -0.1659
     27 F         144.8231  139.3520  165.0221 F       1  UNL1       -0.1659
     28 F         145.0399  140.7399  162.3713 F       1  UNL1       -0.1659
@<TRIPOS>BOND
     1     1     2    1
     2     2     3    1
     3     3     4    1
     4     4     5    1
     5     5    15    1
     6    15    16    1
     7    16    17    1
     8    17    18    1
     9    18    19   ar
    10    19    20   ar
    11    20    25    1
    12    25    26    1
    13    25    27    1
    14    25    28    1
    15    20    21   ar
    16    21    22   ar
    17    22    23    1
    18    22    24   ar
    19     5     8    1
    20     8     9   ar
    21     9    10   ar
    22    10    11   ar
    23    11    12    1
    24    11    13   ar
    25    13    14   ar
    26     5     6    1
    27     6     7    1
    28     7     2    1
    29    24    18   ar
    30    14     8   ar
@<TRIPOS>MOLECULE
*****
 28 30 0 0 0
SMALL
GASTEIGER

@<TRIPOS>ATOM
      1 C         144.3783  143.9643  162.6978 C.3     1  UNL1        0.0896
      2 N         143.2430  143.7098  163.6446 N.3     1  UNL1       -0.2715
      3 C         143.4269  142.7734  164.8018 C.3     1  UNL1        0.0725
      4 C         142.2916  142.5190  165.7485 C.3     1  UNL1        0.0238
      5 C         140.9723  143.2010  165.5380 C.3     1  UNL1        0.0489
      6 C         140.7884  144.1374  164.3808 C.3     1  UNL1        0.0238
      7 C         141.9237  144.3918  163.4341 C.3     1  UNL1        0.0725
      8 C         140.6605  142.4054  166.7709 C.ar    1  UNL1       -0.0203
      9 C         140.5283  140.9136  166.6874 C.ar    1  UNL1       -0.0033
     10 C         140.2165  140.1180  167.9201 C.ar    1  UNL1        0.0111
     11 C         140.0368  140.8143  169.2365 C.ar    1  UNL1        0.0577
     12 CL        139.7250  140.0188  170.4694 Cl      1  UNL1       -0.0822
     13 C         140.1690  142.3062  169.3202 C.ar    1  UNL1        0.0111
     14 C         140.4809  143.1017  168.0873 C.ar    1  UNL1       -0.0033
     15 C         139.5447  143.6067  165.7557 C.3     1  UNL1        0.1467
     16 O         138.6851  143.9826  164.5854 O.3     1  UNL1       -0.3470
     17 C         137.5056  143.1321  164.2173 C.3     1  UNL1        0.1875
     18 C         137.7180  141.7873  163.5877 C.ar    1  UNL1        0.0897
     19 C         138.1074  140.6143  164.4377 C.ar    1  UNL1        0.0212
     20 C         138.3197  139.2695  163.8080 C.ar    1  UNL1        0.0750
     21 C         138.1428  139.0977  162.3285 C.ar    1  UNL1        0.0346
     22 C         137.7535  140.2707  161.4785 C.ar    1  UNL1        0.1380
     23 CL        137.5766  140.0989  159.9989 Cl      1  UNL1       -0.0614
     24 N         137.5411  141.6155  162.1081 N.ar    1  UNL1       -0.2358
     25 C         138.7091  138.0964  164.6580 C.3     1  UNL1        0.4187
     26 F         139.0984  136.9234  165.5080 F       1  UNL1       -0.1659
     27 F         137.9520  138.6821  165.8130 F       1  UNL1       -0.1659
     28 F         139.4662  137.5109  163.5030 F       1  UNL1       -0.1659
@<TRIPOS>BOND
     1     1     2    1
     2     2     3    1
     3     3     4    1
     4     4     5    1
     5     5    15    1
     6    15    16    1
     7    16    17    1
     8    17    18    1
     9    18    19   ar
    10    19    20   ar
    11    20    25    1
    12    25    26    1
    13    25    27    1
    14    25    28    1
    15    20    21   ar
    16    21    22   ar
    17    22    23    1
    18    22    24   ar
    19     5     8    1
    20     8     9   ar
    21     9    10   ar
    22    10    11   ar
    23    11    12    1
    24    11    13   ar
    25    13    14   ar
    26     5     6    1
    27     6     7    1
    28     7     2    1
    29    24    18   ar
    30    14     8   ar
@<TRIPOS>MOLECULE
*****
 28 30 0 0 0
SMALL
GASTEIGER

@<TRIPOS>ATOM
      1 C         140.7761  141.0157  171.1086 C.3     1  UNL1        0.0896
      2 N         140.9598  140.5734  169.6871 N.3     1  UNL1       -0.2715
      3 C         139.7645  140.2357  168.8463 C.3     1  UNL1        0.0725
      4 C         139.9481  139.7934  167.4248 C.3     1  UNL1        0.0238
      5 C         141.3272  139.6888  166.8441 C.3     1  UNL1        0.0489
      6 C         142.5226  140.0265  167.6850 C.3     1  UNL1        0.0238
      7 C         142.3389  140.4688  169.1065 C.3     1  UNL1        0.0725
      8 C         140.5125  139.2635  165.6586 C.ar    1  UNL1       -0.0203
      9 C         139.2177  139.9555  165.3512 C.ar    1  UNL1       -0.0033
     10 C         138.4030  139.5302  164.1657 C.ar    1  UNL1        0.0111
     11 C         138.8831  138.4128  163.2877 C.ar    1  UNL1        0.0577
     12 CL        138.0684  137.9875  162.1022 Cl      1  UNL1       -0.0822
     13 C         140.1779  137.7207  163.5952 C.ar    1  UNL1        0.0111
     14 C         140.9926  138.1460  164.7807 C.ar    1  UNL1       -0.0033
     15 C         142.4234  139.4365  165.8517 C.3     1  UNL1        0.1467
     16 O         143.4164  140.5168  165.5404 O.3     1  UNL1       -0.3470
     17 C         143.3183  141.2767  164.2508 C.3     1  UNL1        0.1875
     18 C         142.0023  141.8513  163.8172 C.ar    1  UNL1        0.0897
     19 C         141.2911  142.8406  164.6921 C.ar    1  UNL1        0.0212
     20 C         139.9752  143.4152  164.2585 C.ar    1  UNL1        0.0750
     21 C         139.3703  143.0005  162.9500 C.ar    1  UNL1        0.0346
     22 C         140.0815  142.0112  162.0750 C.ar    1  UNL1        0.1380
     23 CL        139.4767  141.5965  160.7666 Cl      1  UNL1       -0.0614
     24 N         141.3975  141.4365  162.5086 N.ar    1  UNL1       -0.2358
     25 C         139.2639  144.4046  165.1334 C.3     1  UNL1        0.4187
     26 F         138.5527  145.3939  166.0081 F       1  UNL1       -0.1659
     27 F         138.8912  145.2074  163.9223 F       1  UNL1       -0.1659
     28 F         139.6367  143.6017  166.3443 F       1  UNL1       -0.1659
@<TRIPOS>BOND
     1     1     2    1
     2     2     3    1
     3     3     4    1
     4     4     5    1
     5     5    15    1
     6    15    16    1
     7    16    17    1
     8    17    18    1
     9    18    19   ar
    10    19    20   ar
    11    20    25    1
    12    25    26    1
    13    25    27    1
    14    25    28    1
    15    20    21   ar
    16    21    22   ar
    17    22    23    1
    18    22    24   ar
    19     5     8    1
    20     8     9   ar
    21     9    10   ar
    22    10    11   ar
    23    11    12    1
    24    11    13   ar
    25    13    14   ar
    26     5     6    1
    27     6     7    1
    28     7     2    1
    29    24    18   ar
    30    14     8   ar
@<TRIPOS>MOLECULE
*****
 28 30 0 0 0
SMALL
GASTEIGER

@<TRIPOS>ATOM
      1 C         142.8301  137.2318  157.5848 C.3     1  UNL1        0.0896
      2 N         142.5174  137.9759  158.8491 N.3     1  UNL1       -0.2715
      3 C         143.0212  137.4629  160.1655 C.3     1  UNL1        0.0725
      4 C         142.7084  138.2070  161.4298 C.3     1  UNL1        0.0238
      5 C         141.8919  139.4642  161.3777 C.3     1  UNL1        0.0489
      6 C         141.3882  139.9772  160.0613 C.3     1  UNL1        0.0238
      7 C         141.7009  139.2331  158.7970 C.3     1  UNL1        0.0725
      8 C         142.1423  139.3772  162.8541 C.ar    1  UNL1       -0.0203
      9 C         142.8407  140.4991  163.5637 C.ar    1  UNL1       -0.0033
     10 C         143.0911  140.4122  165.0401 C.ar    1  UNL1        0.0111
     11 C         142.6431  139.2033  165.8068 C.ar    1  UNL1        0.0577
     12 CL        142.8935  139.1164  167.2833 Cl      1  UNL1       -0.0822
     13 C         141.9447  138.0814  165.0973 C.ar    1  UNL1        0.0111
     14 C         141.6943  138.1683  163.6209 C.ar    1  UNL1       -0.0033
     15 C         141.1623  140.6912  161.8383 C.3     1  UNL1        0.1467
     16 O         139.6641  140.7377  161.7836 O.3     1  UNL1       -0.3470
     17 C         138.8945  141.4186  162.8764 C.3     1  UNL1        0.1875
     18 C         139.0191  140.9393  164.2923 C.ar    1  UNL1        0.0897
     19 C         138.4410  139.6132  164.6889 C.ar    1  UNL1        0.0212
     20 C         138.5657  139.1340  166.1048 C.ar    1  UNL1        0.0750
     21 C         139.2685  139.9807  167.1241 C.ar    1  UNL1        0.0346
     22 C         139.8466  141.3069  166.7275 C.ar    1  UNL1        0.1380
     23 CL        140.5494  142.1536  167.7468 Cl      1  UNL1       -0.0614
     24 N         139.7220  141.7862  165.3116 N.ar    1  UNL1       -0.2358
     25 C         137.9876  137.8078  166.5014 C.3     1  UNL1        0.4187
     26 F         137.4096  136.4817  166.8980 F       1  UNL1       -0.1659
     27 F         138.7103  137.1521  165.3621 F       1  UNL1       -0.1659
     28 F         137.2651  138.4636  167.6407 F       1  UNL1       -0.1659
@<TRIPOS>BOND
     1     1     2    1
     2     2     3    1
     3     3     4    1
     4     4     5    1
     5     5    15    1
     6    15    16    1
     7    16    17    1
     8    17    18    1
     9    18    19   ar
    10    19    20   ar
    11    20    25    1
    12    25    26    1
    13    25    27    1
    14    25    28    1
    15    20    21   ar
    16    21    22   ar
    17    22    23    1
    18    22    24   ar
    19     5     8    1
    20     8     9   ar
    21     9    10   ar
    22    10    11   ar
    23    11    12    1
    24    11    13   ar
    25    13    14   ar
    26     5     6    1
    27     6     7    1
    28     7     2    1
    29    24    18   ar
    30    14     8   ar
@<TRIPOS>MOLECULE
*****
 28 30 0 0 0
SMALL
GASTEIGER

@<TRIPOS>ATOM
      1 C         141.3645  141.4600  171.1618 C.3     1  UNL1        0.0896
      2 N         140.9188  141.4927  169.7300 N.3     1  UNL1       -0.2715
      3 C         140.6046  140.2133  169.0129 C.3     1  UNL1        0.0725
      4 C         140.1589  140.2460  167.5810 C.3     1  UNL1        0.0238
      5 C         140.0274  141.5581  166.8662 C.3     1  UNL1        0.0489
      6 C         140.3416  142.8376  167.5833 C.3     1  UNL1        0.0238
      7 C         140.7873  142.8049  169.0152 C.3     1  UNL1        0.0725
      8 C         139.6181  140.6214  165.7684 C.ar    1  UNL1       -0.0203
      9 C         138.5433  141.0224  164.8021 C.ar    1  UNL1       -0.0033
     10 C         138.1340  140.0857  163.7044 C.ar    1  UNL1        0.0111
     11 C         138.7996  138.7479  163.5730 C.ar    1  UNL1        0.0577
     12 CL        138.3904  137.8112  162.4752 Cl      1  UNL1       -0.0822
     13 C         139.8745  138.3468  164.5393 C.ar    1  UNL1        0.0111
     14 C         140.2838  139.2836  165.6370 C.ar    1  UNL1       -0.0033
     15 C         139.7537  142.5450  165.7701 C.3     1  UNL1        0.1467
     16 O         140.7664  143.6019  165.4426 O.3     1  UNL1       -0.3470
     17 C         141.5939  143.4874  164.1967 C.3     1  UNL1        0.1875
     18 C         142.0260  142.1379  163.7048 C.ar    1  UNL1        0.0897
     19 C         143.1132  141.3918  164.4199 C.ar    1  UNL1        0.0212
     20 C         143.5453  140.0422  163.9280 C.ar    1  UNL1        0.0750
     21 C         142.8903  139.4388  162.7210 C.ar    1  UNL1        0.0346
     22 C         141.8030  140.1849  162.0059 C.ar    1  UNL1        0.1380
     23 CL        141.1480  139.5814  160.7990 Cl      1  UNL1       -0.0614
     24 N         141.3709  141.5344  162.4978 N.ar    1  UNL1       -0.2358
     25 C         144.6326  139.2960  164.6430 C.3     1  UNL1        0.4187
     26 F         145.7197  138.5499  165.3580 F       1  UNL1       -0.1659
     27 F         143.6127  138.3530  165.2094 F       1  UNL1       -0.1659
     28 F         145.6523  140.2391  164.0766 F       1  UNL1       -0.1659
@<TRIPOS>BOND
     1     1     2    1
     2     2     3    1
     3     3     4    1
     4     4     5    1
     5     5    15    1
     6    15    16    1
     7    16    17    1
     8    17    18    1
     9    18    19   ar
    10    19    20   ar
    11    20    25    1
    12    25    26    1
    13    25    27    1
    14    25    28    1
    15    20    21   ar
    16    21    22   ar
    17    22    23    1
    18    22    24   ar
    19     5     8    1
    20     8     9   ar
    21     9    10   ar
    22    10    11   ar
    23    11    12    1
    24    11    13   ar
    25    13    14   ar
    26     5     6    1
    27     6     7    1
    28     7     2    1
    29    24    18   ar
    30    14     8   ar
@<TRIPOS>MOLECULE
*****
 28 30 0 0 0
SMALL
GASTEIGER

@<TRIPOS>ATOM
      1 C         139.1058  139.5569  157.9997 C.3     1  UNL1        0.0896
      2 N         139.3988  139.1868  159.4235 N.3     1  UNL1       -0.2715
      3 C         138.3865  139.4661  160.4946 C.3     1  UNL1        0.0725
      4 C         138.6796  139.0959  161.9184 C.3     1  UNL1        0.0238
      5 C         139.9849  138.4466  162.2711 C.3     1  UNL1        0.0489
      6 C         140.9971  138.1673  161.2000 C.3     1  UNL1        0.0238
      7 C         140.7041  138.5374  159.7762 C.3     1  UNL1        0.0725
      8 C         139.3493  138.5077  163.6284 C.ar    1  UNL1       -0.0203
      9 C         139.3058  137.2821  164.4921 C.ar    1  UNL1       -0.0033
     10 C         138.6702  137.3432  165.8494 C.ar    1  UNL1        0.0111
     11 C         138.0781  138.6299  166.3429 C.ar    1  UNL1        0.0577
     12 CL        137.4424  138.6911  167.7003 Cl      1  UNL1       -0.0822
     13 C         138.1215  139.8556  165.4793 C.ar    1  UNL1        0.0111
     14 C         138.7571  139.7944  164.1220 C.ar    1  UNL1       -0.0033
     15 C         141.0695  137.8184  163.0952 C.3     1  UNL1        0.1467
     16 O         142.4898  138.2746  162.9387 O.3     1  UNL1       -0.3470
     17 C         143.1903  138.9510  164.0797 C.3     1  UNL1        0.1875
     18 C         142.4333  139.8848  164.9768 C.ar    1  UNL1        0.0897
     19 C         142.0645  139.4560  166.3661 C.ar    1  UNL1        0.0212
     20 C         141.3075  140.3899  167.2631 C.ar    1  UNL1        0.0750
     21 C         140.9193  141.7526  166.7710 C.ar    1  UNL1        0.0346
     22 C         141.2881  142.1815  165.3817 C.ar    1  UNL1        0.1380
     23 CL        140.8999  143.5442  164.8895 Cl      1  UNL1       -0.0614
     24 N         142.0451  141.2476  164.4846 N.ar    1  UNL1       -0.2358
     25 C         140.9387  139.9611  168.6525 C.3     1  UNL1        0.4187
     26 F         140.5699  139.5323  170.0417 F       1  UNL1       -0.1659
     27 F         142.2016  139.1563  168.7392 F       1  UNL1       -0.1659
     28 F         139.6759  140.7659  168.5656 F       1  UNL1       -0.1659
@<TRIPOS>BOND
     1     1     2    1
     2     2     3    1
     3     3     4    1
     4     4     5    1
     5     5    15    1
     6    15    16    1
     7    16    17    1
     8    17    18    1
     9    18    19   ar
    10    19    20   ar
    11    20    25    1
    12    25    26    1
    13    25    27    1
    14    25    28    1
    15    20    21   ar
    16    21    22   ar
    17    22    23    1
    18    22    24   ar
    19     5     8    1
    20     8     9   ar
    21     9    10   ar
    22    10    11   ar
    23    11    12    1
    24    11    13   ar
    25    13    14   ar
    26     5     6    1
    27     6     7    1
    28     7     2    1
    29    24    18   ar
    30    14     8   ar
@<TRIPOS>MOLECULE
*****
 28 30 0 0 0
SMALL
GASTEIGER

@<TRIPOS>ATOM
      1 C         139.7238  146.0894  161.1813 C.3     1  UNL1        0.0896
      2 N         139.7941  145.1469  162.3461 N.3     1  UNL1       -0.2715
      3 C         140.9757  145.1825  163.2695 C.3     1  UNL1        0.0725
      4 C         141.0460  144.2400  164.4343 C.3     1  UNL1        0.0238
      5 C         139.9347  143.2620  164.6758 C.3     1  UNL1        0.0489
      6 C         138.7531  143.2263  163.7525 C.3     1  UNL1        0.0238
      7 C         138.6828  144.1688  162.5876 C.3     1  UNL1        0.0725
      8 C         140.8395  142.9162  165.8211 C.ar    1  UNL1       -0.0203
      9 C         140.2916  142.8484  167.2158 C.ar    1  UNL1       -0.0033
     10 C         141.1963  142.5026  168.3611 C.ar    1  UNL1        0.0111
     11 C         142.6491  142.2246  168.1118 C.ar    1  UNL1        0.0577
     12 CL        143.5539  141.8788  169.2571 Cl      1  UNL1       -0.0822
     13 C         143.1971  142.2924  166.7171 C.ar    1  UNL1        0.0111
     14 C         142.2923  142.6381  165.5717 C.ar    1  UNL1       -0.0033
     15 C         139.1376  142.1637  165.3150 C.3     1  UNL1        0.1467
     16 O         138.5328  141.0846  164.4668 O.3     1  UNL1       -0.3470
     17 C         138.9654  139.6594  164.6452 C.3     1  UNL1        0.1875
     18 C         140.4231  139.3280  164.7687 C.ar    1  UNL1        0.0897
     19 C         141.2544  139.1302  163.5358 C.ar    1  UNL1        0.0212
     20 C         142.7121  138.7988  163.6594 C.ar    1  UNL1        0.0750
     21 C         143.3386  138.6652  165.0157 C.ar    1  UNL1        0.0346
     22 C         142.5073  138.8630  166.2486 C.ar    1  UNL1        0.1380
     23 CL        143.1338  138.7294  167.6049 Cl      1  UNL1       -0.0614
     24 N         141.0496  139.1944  166.1251 N.ar    1  UNL1       -0.2358
     25 C         143.5434  138.6010  162.4265 C.3     1  UNL1        0.4187
     26 F         144.3747  138.4032  161.1938 F       1  UNL1       -0.1659
     27 F         142.5015  137.6749  161.8726 F       1  UNL1       -0.1659
     28 F         144.5853  139.5271  162.9805 F       1  UNL1       -0.1659
@<TRIPOS>BOND
     1     1     2    1
     2     2     3    1
     3     3     4    1
     4     4     5    1
     5     5    15    1
     6    15    16    1
     7    16    17    1
     8    17    18    1
     9    18    19   ar
    10    19    20   ar
    11    20    25    1
    12    25    26    1
    13    25    27    1
    14    25    28    1
    15    20    21   ar
    16    21    22   ar
    17    22    23    1
    18    22    24   ar
    19     5     8    1
    20     8     9   ar
    21     9    10   ar
    22    10    11   ar
    23    11    12    1
    24    11    13   ar
    25    13    14   ar
    26     5     6    1
    27     6     7    1
    28     7     2    1
    29    24    18   ar
    30    14     8   ar
@<TRIPOS>MOLECULE
*****
 28 30 0 0 0
SMALL
GASTEIGER

@<TRIPOS>ATOM
      1 C         140.2955  145.6420  162.1948 C.3     1  UNL1        0.0896
      2 N         140.9902  144.7525  163.1828 N.3     1  UNL1       -0.2715
      3 C         140.2078  144.0981  164.2826 C.3     1  UNL1        0.0725
      4 C         140.9025  143.2086  165.2705 C.3     1  UNL1        0.0238
      5 C         142.3797  142.9735  165.1588 C.3     1  UNL1        0.0489
      6 C         143.1622  143.6278  164.0590 C.3     1  UNL1        0.0238
      7 C         142.4674  144.5173  163.0710 C.3     1  UNL1        0.0725
      8 C         142.0733  142.1365  166.3653 C.ar    1  UNL1       -0.0203
      9 C         143.0244  142.1159  167.5250 C.ar    1  UNL1       -0.0033
     10 C         142.7180  141.2789  168.7315 C.ar    1  UNL1        0.0111
     11 C         141.4605  140.4625  168.7782 C.ar    1  UNL1        0.0577
     12 CL        141.1541  139.6255  169.9847 Cl      1  UNL1       -0.0822
     13 C         140.5094  140.4831  167.6185 C.ar    1  UNL1        0.0111
     14 C         140.8158  141.3201  166.4120 C.ar    1  UNL1       -0.0033
     15 C         143.7506  142.4476  165.4660 C.3     1  UNL1        0.1467
     16 O         144.5945  141.8679  164.3698 O.3     1  UNL1       -0.3470
     17 C         144.8429  140.3895  164.3166 C.3     1  UNL1        0.1875
     18 C         143.8323  139.4817  163.6805 C.ar    1  UNL1        0.0897
     19 C         142.6273  139.0398  164.4569 C.ar    1  UNL1        0.0212
     20 C         141.6168  138.1320  163.8207 C.ar    1  UNL1        0.0750
     21 C         141.8112  137.6661  162.4082 C.ar    1  UNL1        0.0346
     22 C         143.0163  138.1080  161.6318 C.ar    1  UNL1        0.1380
     23 CL        143.2107  137.6421  160.2194 Cl      1  UNL1       -0.0614
     24 N         144.0268  139.0158  162.2679 N.ar    1  UNL1       -0.2358
     25 C         140.4118  137.6900  164.5970 C.3     1  UNL1        0.4187
     26 F         139.2068  137.2481  165.3733 F       1  UNL1       -0.1659
     27 F         141.0534  136.3548  164.8326 F       1  UNL1       -0.1659
     28 F         139.7703  139.0253  164.3614 F       1  UNL1       -0.1659
@<TRIPOS>BOND
     1     1     2    1
     2     2     3    1
     3     3     4    1
     4     4     5    1
     5     5    15    1
     6    15    16    1
     7    16    17    1
     8    17    18    1
     9    18    19   ar
    10    19    20   ar
    11    20    25    1
    12    25    26    1
    13    25    27    1
    14    25    28    1
    15    20    21   ar
    16    21    22   ar
    17    22    23    1
    18    22    24   ar
    19     5     8    1
    20     8     9   ar
    21     9    10   ar
    22    10    11   ar
    23    11    12    1
    24    11    13   ar
    25    13    14   ar
    26     5     6    1
    27     6     7    1
    28     7     2    1
    29    24    18   ar
    30    14     8   ar
