@<TRIPOS>MOLECULE
*****
 30 33 0 0 0
SMALL
GASTEIGER

@<TRIPOS>ATOM
      1 C         138.4262  142.1921  164.2126 C.ar    1  UNL1        0.1387
      2 C         138.0989  140.8015  164.6699 C.ar    1  UNL1        0.0384
      3 C         138.9138  140.1564  165.7516 C.ar    1  UNL1        0.0207
      4 C         140.0559  140.9019  166.3759 C.ar    1  UNL1        0.0671
      5 C         140.3832  142.2925  165.9186 C.ar    1  UNL1        0.0207
      6 C         139.5684  142.9376  164.8370 C.ar    1  UNL1        0.0384
      7 N         140.8707  140.2568  167.4575 N.ar    1  UNL1       -0.2729
      8 C         140.4079  140.3184  168.8830 C.ar    1  UNL1        0.0860
      9 C         141.2227  139.6732  169.9646 C.ar    1  UNL1        0.0561
     10 C         142.5003  138.9665  169.6207 C.ar    1  UNL1        0.1453
     11 C         142.9631  138.9050  168.1952 C.ar    1  UNL1        0.0980
     12 C         142.1483  139.5501  167.1136 C.ar    1  UNL1        0.2679
     13 O         142.6111  139.4885  165.6881 O.2     1  UNL1       -0.2665
     14 O         143.3151  138.3215  170.7023 O.3     1  UNL1       -0.4704
     15 C         143.8905  136.9522  170.4924 C.3     1  UNL1        0.2320
     16 C         144.7814  136.3450  171.5353 C.ar    1  UNL1        0.0212
     17 C         145.7578  137.2057  172.2810 C.ar    1  UNL1       -0.0007
     18 C         146.6487  136.5986  173.3239 C.ar    1  UNL1       -0.0002
     19 C         146.5633  135.1308  173.6211 C.ar    1  UNL1       -0.0000
     20 C         145.5870  134.2701  172.8754 C.ar    1  UNL1       -0.0002
     21 C         144.6960  134.8773  171.8325 C.ar    1  UNL1       -0.0007
     22 O         137.6114  142.8372  163.1310 O.3     1  UNL1       -0.4740
     23 C         138.1549  142.9285  161.7359 C.3     1  UNL1        0.2211
     24 C         139.5662  145.5645  161.9806 C.3     1  UNL1        0.0897
     25 N         140.3415  144.3280  161.6342 N.3     1  UNL1       -0.2696
     26 C         141.8224  144.4094  161.4101 C.3     1  UNL1        0.0722
     27 C         142.5977  143.1729  161.0637 C.3     1  UNL1        0.0174
     28 C         141.8920  141.8550  160.9413 C.3     1  UNL1        0.0029
     29 C         140.4111  141.7735  161.1654 C.3     1  UNL1        0.0198
     30 C         139.6359  143.0100  161.5118 C.3     1  UNL1        0.1016
@<TRIPOS>BOND
     1    24    25    1
     2    25    26    1
     3    26    27    1
     4    27    28    1
     5    28    29    1
     6    29    30    1
     7    30    23    1
     8    23    22    1
     9    22     1    1
    10     1     2   ar
    11     2     3   ar
    12     3     4   ar
    13     4     7    1
    14     7     8   ar
    15     8     9   ar
    16     9    10   ar
    17    10    14    1
    18    14    15    1
    19    15    16    1
    20    16    17   ar
    21    17    18   ar
    22    18    19   ar
    23    19    20   ar
    24    20    21   ar
    25    10    11   ar
    26    11    12   ar
    27    12    13    2
    28     4     5   ar
    29     5     6   ar
    30    30    25    1
    31     6     1   ar
    32    12     7   ar
    33    21    16   ar
@<TRIPOS>MOLECULE
*****
 30 33 0 0 0
SMALL
GASTEIGER

@<TRIPOS>ATOM
      1 C         141.7635  138.0092  157.8485 C.ar    1  UNL1        0.1387
      2 C         142.6236  138.0361  159.0770 C.ar    1  UNL1        0.0384
      3 C         142.0031  138.2729  160.4220 C.ar    1  UNL1        0.0207
      4 C         140.5225  138.4827  160.5384 C.ar    1  UNL1        0.0671
      5 C         139.6623  138.4558  159.3099 C.ar    1  UNL1        0.0207
      6 C         140.2827  138.2191  157.9649 C.ar    1  UNL1        0.0384
      7 N         139.9020  138.7194  161.8834 N.ar    1  UNL1       -0.2729
      8 C         139.7552  137.5836  162.8521 C.ar    1  UNL1        0.0860
      9 C         139.1347  137.8204  164.1971 C.ar    1  UNL1        0.0561
     10 C         138.6610  139.1930  164.5733 C.ar    1  UNL1        0.1453
     11 C         138.8077  140.3288  163.6046 C.ar    1  UNL1        0.0980
     12 C         139.4282  140.0921  162.2597 C.ar    1  UNL1        0.2679
     13 O         139.5749  141.2279  161.2910 O.2     1  UNL1       -0.2665
     14 O         138.0405  139.4297  165.9183 O.3     1  UNL1       -0.4704
     15 C         138.8457  139.2105  167.1647 C.3     1  UNL1        0.2320
     16 C         139.4047  140.3846  167.9126 C.ar    1  UNL1        0.0212
     17 C         139.2444  140.4708  169.4015 C.ar    1  UNL1       -0.0007
     18 C         139.8034  141.6447  170.1493 C.ar    1  UNL1       -0.0002
     19 C         140.5228  142.7326  169.4082 C.ar    1  UNL1       -0.0000
     20 C         140.6832  142.6464  167.9193 C.ar    1  UNL1       -0.0002
     21 C         140.1241  141.4723  167.1715 C.ar    1  UNL1       -0.0007
     22 O         142.3839  137.7725  156.5035 O.3     1  UNL1       -0.4740
     23 C         143.2646  136.5783  156.2835 C.3     1  UNL1        0.2211
     24 C         143.5607  134.0309  157.8401 C.3     1  UNL1        0.0897
     25 N         142.8280  134.0292  156.5312 N.3     1  UNL1       -0.2696
     26 C         142.2434  132.7538  156.0006 C.3     1  UNL1        0.0722
     27 C         141.5107  132.7521  154.6917 C.3     1  UNL1        0.0174
     28 C         141.3627  134.0258  153.9134 C.3     1  UNL1        0.0029
     29 C         141.9473  135.3012  154.4440 C.3     1  UNL1        0.0198
     30 C         142.6800  135.3029  155.7529 C.3     1  UNL1        0.1016
@<TRIPOS>BOND
     1    24    25    1
     2    25    26    1
     3    26    27    1
     4    27    28    1
     5    28    29    1
     6    29    30    1
     7    30    23    1
     8    23    22    1
     9    22     1    1
    10     1     2   ar
    11     2     3   ar
    12     3     4   ar
    13     4     7    1
    14     7     8   ar
    15     8     9   ar
    16     9    10   ar
    17    10    14    1
    18    14    15    1
    19    15    16    1
    20    16    17   ar
    21    17    18   ar
    22    18    19   ar
    23    19    20   ar
    24    20    21   ar
    25    10    11   ar
    26    11    12   ar
    27    12    13    2
    28     4     5   ar
    29     5     6   ar
    30    30    25    1
    31     6     1   ar
    32    12     7   ar
    33    21    16   ar
@<TRIPOS>MOLECULE
*****
 30 33 0 0 0
SMALL
GASTEIGER

@<TRIPOS>ATOM
      1 C         138.2414  141.8821  163.7842 C.ar    1  UNL1        0.1387
      2 C         138.9543  142.8149  164.7178 C.ar    1  UNL1        0.0384
      3 C         139.8123  142.2640  165.8180 C.ar    1  UNL1        0.0207
      4 C         139.9573  140.7804  165.9847 C.ar    1  UNL1        0.0671
      5 C         139.2443  139.8476  165.0511 C.ar    1  UNL1        0.0207
      6 C         138.3864  140.3984  163.9509 C.ar    1  UNL1        0.0384
      7 N         140.8153  140.2296  167.0849 N.ar    1  UNL1       -0.2729
      8 C         140.3363  140.2786  168.5055 C.ar    1  UNL1        0.0860
      9 C         141.1943  139.7278  169.6057 C.ar    1  UNL1        0.0561
     10 C         142.5313  139.1279  169.2853 C.ar    1  UNL1        0.1453
     11 C         143.0102  139.0789  167.8646 C.ar    1  UNL1        0.0980
     12 C         142.1523  139.6297  166.7645 C.ar    1  UNL1        0.2679
     13 O         142.6313  139.5806  165.3438 O.2     1  UNL1       -0.2665
     14 O         143.3892  138.5771  170.3855 O.3     1  UNL1       -0.4704
     15 C         143.4262  137.0992  170.6393 C.3     1  UNL1        0.2320
     16 C         144.4824  136.5176  171.5316 C.ar    1  UNL1        0.0212
     17 C         144.5516  135.0343  171.7437 C.ar    1  UNL1       -0.0007
     18 C         145.6078  134.4528  172.6360 C.ar    1  UNL1       -0.0002
     19 C         146.5949  135.3545  173.3162 C.ar    1  UNL1       -0.0000
     20 C         146.5257  136.8378  173.1041 C.ar    1  UNL1       -0.0002
     21 C         145.4694  137.4194  172.2118 C.ar    1  UNL1       -0.0007
     22 O         137.3834  142.4329  162.6840 O.3     1  UNL1       -0.4740
     23 C         137.9944  142.7802  161.3589 C.3     1  UNL1        0.2211
     24 C         139.8202  140.5492  160.5288 C.3     1  UNL1        0.0897
     25 N         140.3844  141.9040  160.8387 N.3     1  UNL1       -0.2696
     26 C         141.8614  142.1434  160.7336 C.3     1  UNL1        0.0722
     27 C         142.4255  143.4983  161.0435 C.3     1  UNL1        0.0174
     28 C         141.5127  144.6138  161.4585 C.3     1  UNL1        0.0029
     29 C         140.0357  144.3744  161.5636 C.3     1  UNL1        0.0198
     30 C         139.4715  143.0196  161.2537 C.3     1  UNL1        0.1016
@<TRIPOS>BOND
     1    24    25    1
     2    25    26    1
     3    26    27    1
     4    27    28    1
     5    28    29    1
     6    29    30    1
     7    30    23    1
     8    23    22    1
     9    22     1    1
    10     1     2   ar
    11     2     3   ar
    12     3     4   ar
    13     4     7    1
    14     7     8   ar
    15     8     9   ar
    16     9    10   ar
    17    10    14    1
    18    14    15    1
    19    15    16    1
    20    16    17   ar
    21    17    18   ar
    22    18    19   ar
    23    19    20   ar
    24    20    21   ar
    25    10    11   ar
    26    11    12   ar
    27    12    13    2
    28     4     5   ar
    29     5     6   ar
    30    30    25    1
    31     6     1   ar
    32    12     7   ar
    33    21    16   ar
@<TRIPOS>MOLECULE
*****
 30 33 0 0 0
SMALL
GASTEIGER

@<TRIPOS>ATOM
      1 C         141.9745  137.1585  157.1852 C.ar    1  UNL1        0.1387
      2 C         140.5277  137.4268  156.8942 C.ar    1  UNL1        0.0384
      3 C         139.7130  138.2553  157.8429 C.ar    1  UNL1        0.0207
      4 C         140.3451  138.8155  159.0824 C.ar    1  UNL1        0.0671
      5 C         141.7919  138.5471  159.3734 C.ar    1  UNL1        0.0207
      6 C         142.6066  137.7186  158.4249 C.ar    1  UNL1        0.0384
      7 N         139.5304  139.6439  160.0310 N.ar    1  UNL1       -0.2729
      8 C         139.1527  141.0488  159.6656 C.ar    1  UNL1        0.0860
      9 C         138.3379  141.8773  160.6142 C.ar    1  UNL1        0.0561
     10 C         137.9010  141.3009  161.9283 C.ar    1  UNL1        0.1453
     11 C         138.2787  139.8960  162.2937 C.ar    1  UNL1        0.0980
     12 C         139.0934  139.0675  161.3452 C.ar    1  UNL1        0.2679
     13 O         139.4712  137.6626  161.7106 O.2     1  UNL1       -0.2665
     14 O         137.0863  142.1294  162.8769 O.3     1  UNL1       -0.4704
     15 C         137.7552  142.8425  164.0144 C.3     1  UNL1        0.2320
     16 C         138.9720  143.6824  163.7614 C.ar    1  UNL1        0.0212
     17 C         138.9007  144.8378  162.8075 C.ar    1  UNL1       -0.0007
     18 C         140.1175  145.6776  162.5544 C.ar    1  UNL1       -0.0002
     19 C         141.4056  145.3621  163.2553 C.ar    1  UNL1       -0.0000
     20 C         141.4769  144.2067  164.2093 C.ar    1  UNL1       -0.0002
     21 C         140.2601  143.3668  164.4623 C.ar    1  UNL1       -0.0007
     22 O         142.7892  136.3300  156.2366 O.3     1  UNL1       -0.4740
     23 C         142.2846  134.9910  155.7867 C.3     1  UNL1        0.2211
     24 C         141.1310  132.3182  155.0616 C.3     1  UNL1        0.0897
     25 N         142.3215  132.3996  155.9704 N.3     1  UNL1       -0.2696
     26 C         142.9352  131.1447  156.5167 C.3     1  UNL1        0.0722
     27 C         144.1258  131.2261  157.4256 C.3     1  UNL1        0.0174
     28 C         144.7026  132.5624  157.7881 C.3     1  UNL1        0.0029
     29 C         144.0888  133.8174  157.2418 C.3     1  UNL1        0.0198
     30 C         142.8983  133.7360  156.3330 C.3     1  UNL1        0.1016
@<TRIPOS>BOND
     1    24    25    1
     2    25    26    1
     3    26    27    1
     4    27    28    1
     5    28    29    1
     6    29    30    1
     7    30    23    1
     8    23    22    1
     9    22     1    1
    10     1     2   ar
    11     2     3   ar
    12     3     4   ar
    13     4     7    1
    14     7     8   ar
    15     8     9   ar
    16     9    10   ar
    17    10    14    1
    18    14    15    1
    19    15    16    1
    20    16    17   ar
    21    17    18   ar
    22    18    19   ar
    23    19    20   ar
    24    20    21   ar
    25    10    11   ar
    26    11    12   ar
    27    12    13    2
    28     4     5   ar
    29     5     6   ar
    30    30    25    1
    31     6     1   ar
    32    12     7   ar
    33    21    16   ar
@<TRIPOS>MOLECULE
*****
 30 33 0 0 0
SMALL
GASTEIGER

@<TRIPOS>ATOM
      1 C         140.9307  145.1570  156.5874 C.ar    1  UNL1        0.1387
      2 C         139.8406  144.2402  157.0576 C.ar    1  UNL1        0.0384
      3 C         139.6820  143.9522  158.5211 C.ar    1  UNL1        0.0207
      4 C         140.6136  144.5810  159.5145 C.ar    1  UNL1        0.0671
      5 C         141.7037  145.4978  159.0443 C.ar    1  UNL1        0.0207
      6 C         141.8623  145.7858  157.5808 C.ar    1  UNL1        0.0384
      7 N         140.4550  144.2930  160.9780 N.ar    1  UNL1       -0.2729
      8 C         141.0525  143.0494  161.5667 C.ar    1  UNL1        0.0860
      9 C         140.8939  142.7614  163.0303 C.ar    1  UNL1        0.0561
     10 C         140.1378  143.7170  163.9050 C.ar    1  UNL1        0.1453
     11 C         139.5404  144.9606  163.3163 C.ar    1  UNL1        0.0980
     12 C         139.6990  145.2486  161.8528 C.ar    1  UNL1        0.2679
     13 O         139.1015  146.4921  161.2641 O.2     1  UNL1       -0.2665
     14 O         139.9793  143.4290  165.3685 O.3     1  UNL1       -0.4704
     15 C         140.7669  142.3223  166.0048 C.3     1  UNL1        0.2320
     16 C         141.3426  142.5049  167.3779 C.ar    1  UNL1        0.0212
     17 C         140.5122  143.1237  168.4630 C.ar    1  UNL1       -0.0007
     18 C         141.0878  143.3063  169.8361 C.ar    1  UNL1       -0.0002
     19 C         142.4938  142.8702  170.1241 C.ar    1  UNL1       -0.0000
     20 C         143.3242  142.2514  169.0389 C.ar    1  UNL1       -0.0002
     21 C         142.7486  142.0688  167.6658 C.ar    1  UNL1       -0.0007
     22 O         141.0893  145.4450  155.1239 O.3     1  UNL1       -0.4740
     23 C         139.9828  146.1189  154.3679 C.3     1  UNL1        0.2211
     24 C         140.8718  148.2823  152.4892 C.3     1  UNL1        0.0897
     25 N         140.0852  148.6322  153.7175 N.3     1  UNL1       -0.2696
     26 C         139.7430  150.0637  154.0065 C.3     1  UNL1        0.0722
     27 C         138.9563  150.4136  155.2348 C.3     1  UNL1        0.0174
     28 C         138.5118  149.3320  156.1741 C.3     1  UNL1        0.0029
     29 C         138.8540  147.9004  155.8851 C.3     1  UNL1        0.0198
     30 C         139.6406  147.5505  154.6568 C.3     1  UNL1        0.1016
@<TRIPOS>BOND
     1    24    25    1
     2    25    26    1
     3    26    27    1
     4    27    28    1
     5    28    29    1
     6    29    30    1
     7    30    23    1
     8    23    22    1
     9    22     1    1
    10     1     2   ar
    11     2     3   ar
    12     3     4   ar
    13     4     7    1
    14     7     8   ar
    15     8     9   ar
    16     9    10   ar
    17    10    14    1
    18    14    15    1
    19    15    16    1
    20    16    17   ar
    21    17    18   ar
    22    18    19   ar
    23    19    20   ar
    24    20    21   ar
    25    10    11   ar
    26    11    12   ar
    27    12    13    2
    28     4     5   ar
    29     5     6   ar
    30    30    25    1
    31     6     1   ar
    32    12     7   ar
    33    21    16   ar
@<TRIPOS>MOLECULE
*****
 30 33 0 0 0
SMALL
GASTEIGER

@<TRIPOS>ATOM
      1 C         142.1029  137.0966  156.8567 C.ar    1  UNL1        0.1387
      2 C         140.6501  137.3249  156.5613 C.ar    1  UNL1        0.0384
      3 C         139.7908  138.0598  157.5470 C.ar    1  UNL1        0.0207
      4 C         140.3842  138.5663  158.8281 C.ar    1  UNL1        0.0671
      5 C         141.8370  138.3380  159.1235 C.ar    1  UNL1        0.0207
      6 C         142.6963  137.6031  158.1379 C.ar    1  UNL1        0.0384
      7 N         139.5249  139.3012  159.8137 N.ar    1  UNL1       -0.2729
      8 C         138.8235  138.5481  160.9050 C.ar    1  UNL1        0.0860
      9 C         137.9641  139.2830  161.8907 C.ar    1  UNL1        0.0561
     10 C         137.8062  140.7709  161.7850 C.ar    1  UNL1        0.1453
     11 C         138.5076  141.5240  160.6937 C.ar    1  UNL1        0.0980
     12 C         139.3670  140.7891  159.7081 C.ar    1  UNL1        0.2679
     13 O         140.0684  141.5422  158.6168 O.2     1  UNL1       -0.2665
     14 O         136.9469  141.5058  162.7706 O.3     1  UNL1       -0.4704
     15 C         137.5505  142.5562  163.6552 C.3     1  UNL1        0.2320
     16 C         138.4823  142.1598  164.7618 C.ar    1  UNL1        0.0212
     17 C         138.4510  140.7615  165.3040 C.ar    1  UNL1       -0.0007
     18 C         139.3828  140.3652  166.4106 C.ar    1  UNL1       -0.0002
     19 C         140.3460  141.3670  166.9751 C.ar    1  UNL1       -0.0000
     20 C         140.3773  142.7653  166.4330 C.ar    1  UNL1       -0.0002
     21 C         139.4454  143.1617  165.3263 C.ar    1  UNL1       -0.0007
     22 O         142.9622  136.3618  155.8711 O.3     1  UNL1       -0.4740
     23 C         143.7331  135.1503  156.3049 C.3     1  UNL1        0.2211
     24 C         144.7798  132.8344  157.8990 C.3     1  UNL1        0.0897
     25 N         143.6745  132.6237  156.9071 N.3     1  UNL1       -0.2696
     26 C         143.0925  131.2550  156.7123 C.3     1  UNL1        0.0722
     27 C         141.9871  131.0442  155.7205 C.3     1  UNL1        0.0174
     28 C         141.4638  132.2021  154.9234 C.3     1  UNL1        0.0029
     29 C         142.0457  133.5708  155.1183 C.3     1  UNL1        0.0198
     30 C         143.1511  133.7816  156.1101 C.3     1  UNL1        0.1016
@<TRIPOS>BOND
     1    24    25    1
     2    25    26    1
     3    26    27    1
     4    27    28    1
     5    28    29    1
     6    29    30    1
     7    30    23    1
     8    23    22    1
     9    22     1    1
    10     1     2   ar
    11     2     3   ar
    12     3     4   ar
    13     4     7    1
    14     7     8   ar
    15     8     9   ar
    16     9    10   ar
    17    10    14    1
    18    14    15    1
    19    15    16    1
    20    16    17   ar
    21    17    18   ar
    22    18    19   ar
    23    19    20   ar
    24    20    21   ar
    25    10    11   ar
    26    11    12   ar
    27    12    13    2
    28     4     5   ar
    29     5     6   ar
    30    30    25    1
    31     6     1   ar
    32    12     7   ar
    33    21    16   ar
@<TRIPOS>MOLECULE
*****
 30 33 0 0 0
SMALL
GASTEIGER

@<TRIPOS>ATOM
      1 C         142.5702  137.5311  157.6354 C.ar    1  UNL1        0.1387
      2 C         141.8421  138.5801  156.8483 C.ar    1  UNL1        0.0384
      3 C         141.1358  139.6960  157.5595 C.ar    1  UNL1        0.0207
      4 C         141.1576  139.7630  159.0579 C.ar    1  UNL1        0.0671
      5 C         141.8857  138.7140  159.8450 C.ar    1  UNL1        0.0207
      6 C         142.5920  137.5981  159.1338 C.ar    1  UNL1        0.0384
      7 N         140.4513  140.8789  159.7690 N.ar    1  UNL1       -0.2729
      8 C         141.2374  142.0252  160.3330 C.ar    1  UNL1        0.0860
      9 C         140.5310  143.1411  161.0443 C.ar    1  UNL1        0.0561
     10 C         139.0385  143.1107  161.1915 C.ar    1  UNL1        0.1453
     11 C         138.2524  141.9644  160.6275 C.ar    1  UNL1        0.0980
     12 C         138.9588  140.8485  159.9163 C.ar    1  UNL1        0.2679
     13 O         138.1726  139.7023  159.3523 O.2     1  UNL1       -0.2665
     14 O         138.3322  144.2266  161.9026 O.3     1  UNL1       -0.4704
     15 C         137.7304  143.9911  163.2563 C.3     1  UNL1        0.2320
     16 C         138.4583  143.1532  164.2653 C.ar    1  UNL1        0.0212
     17 C         139.5496  143.7598  165.0967 C.ar    1  UNL1       -0.0007
     18 C         140.2775  142.9219  166.1057 C.ar    1  UNL1       -0.0002
     19 C         139.9143  141.4774  166.2832 C.ar    1  UNL1       -0.0000
     20 C         138.8231  140.8708  165.4518 C.ar    1  UNL1       -0.0002
     21 C         138.0951  141.7087  164.4428 C.ar    1  UNL1       -0.0007
     22 O         143.2765  136.4152  156.9242 O.3     1  UNL1       -0.4740
     23 C         142.5099  135.2049  156.4801 C.3     1  UNL1        0.2211
     24 C         141.1908  132.8031  155.2588 C.3     1  UNL1        0.0897
     25 N         142.3926  132.6318  156.1400 N.3     1  UNL1       -0.2696
     26 C         142.9348  131.2597  156.4105 C.3     1  UNL1        0.0722
     27 C         144.1366  131.0885  157.2917 C.3     1  UNL1        0.0174
     28 C         144.7961  132.2893  157.9023 C.3     1  UNL1        0.0029
     29 C         144.2539  133.6614  157.6317 C.3     1  UNL1        0.0198
     30 C         143.0521  133.8327  156.7506 C.3     1  UNL1        0.1016
@<TRIPOS>BOND
     1    24    25    1
     2    25    26    1
     3    26    27    1
     4    27    28    1
     5    28    29    1
     6    29    30    1
     7    30    23    1
     8    23    22    1
     9    22     1    1
    10     1     2   ar
    11     2     3   ar
    12     3     4   ar
    13     4     7    1
    14     7     8   ar
    15     8     9   ar
    16     9    10   ar
    17    10    14    1
    18    14    15    1
    19    15    16    1
    20    16    17   ar
    21    17    18   ar
    22    18    19   ar
    23    19    20   ar
    24    20    21   ar
    25    10    11   ar
    26    11    12   ar
    27    12    13    2
    28     4     5   ar
    29     5     6   ar
    30    30    25    1
    31     6     1   ar
    32    12     7   ar
    33    21    16   ar
@<TRIPOS>MOLECULE
*****
 30 33 0 0 0
SMALL
GASTEIGER

@<TRIPOS>ATOM
      1 C         140.2091  145.2106  157.4633 C.ar    1  UNL1        0.1387
      2 C         140.8718  145.7127  158.7118 C.ar    1  UNL1        0.0384
      3 C         140.7468  144.9386  159.9906 C.ar    1  UNL1        0.0207
      4 C         139.9592  143.6624  160.0208 C.ar    1  UNL1        0.0671
      5 C         139.2965  143.1603  158.7723 C.ar    1  UNL1        0.0207
      6 C         139.4215  143.9344  157.4936 C.ar    1  UNL1        0.0384
      7 N         139.8343  142.8883  161.2995 N.ar    1  UNL1       -0.2729
      8 C         140.6546  141.6503  161.5100 C.ar    1  UNL1        0.0860
      9 C         140.5296  140.8762  162.7888 C.ar    1  UNL1        0.0561
     10 C         139.5843  141.3402  163.8570 C.ar    1  UNL1        0.1453
     11 C         138.7640  142.5783  163.6465 C.ar    1  UNL1        0.0980
     12 C         138.8890  143.3523  162.3678 C.ar    1  UNL1        0.2679
     13 O         138.0686  144.5904  162.1573 O.2     1  UNL1       -0.2665
     14 O         139.4594  140.5661  165.1357 O.3     1  UNL1       -0.4704
     15 C         140.5626  140.6119  166.1510 C.3     1  UNL1        0.2320
     16 C         140.2969  141.1564  167.5233 C.ar    1  UNL1        0.0212
     17 C         140.7386  142.5454  167.8775 C.ar    1  UNL1       -0.0007
     18 C         140.4729  143.0899  169.2496 C.ar    1  UNL1       -0.0002
     19 C         139.7655  142.2454  170.2677 C.ar    1  UNL1       -0.0000
     20 C         139.3238  140.8563  169.9135 C.ar    1  UNL1       -0.0002
     21 C         139.5895  140.3118  168.5412 C.ar    1  UNL1       -0.0007
     22 O         140.3341  145.9847  156.1846 O.3     1  UNL1       -0.4740
     23 C         139.1302  146.6574  155.5944 C.3     1  UNL1        0.2211
     24 C         140.6693  147.6751  153.2289 C.3     1  UNL1        0.0897
     25 N         139.9325  148.6361  154.1141 N.3     1  UNL1       -0.2696
     26 C         139.9652  150.1059  153.8166 C.3     1  UNL1        0.0722
     27 C         139.2284  151.0669  154.7018 C.3     1  UNL1        0.0174
     28 C         138.4589  150.5581  155.8845 C.3     1  UNL1        0.0029
     29 C         138.4262  149.0883  156.1821 C.3     1  UNL1        0.0198
     30 C         139.1630  148.1273  155.2968 C.3     1  UNL1        0.1016
@<TRIPOS>BOND
     1    24    25    1
     2    25    26    1
     3    26    27    1
     4    27    28    1
     5    28    29    1
     6    29    30    1
     7    30    23    1
     8    23    22    1
     9    22     1    1
    10     1     2   ar
    11     2     3   ar
    12     3     4   ar
    13     4     7    1
    14     7     8   ar
    15     8     9   ar
    16     9    10   ar
    17    10    14    1
    18    14    15    1
    19    15    16    1
    20    16    17   ar
    21    17    18   ar
    22    18    19   ar
    23    19    20   ar
    24    20    21   ar
    25    10    11   ar
    26    11    12   ar
    27    12    13    2
    28     4     5   ar
    29     5     6   ar
    30    30    25    1
    31     6     1   ar
    32    12     7   ar
    33    21    16   ar
@<TRIPOS>MOLECULE
*****
 30 33 0 0 0
SMALL
GASTEIGER

@<TRIPOS>ATOM
      1 C         140.1755  139.2521  165.0510 C.ar    1  UNL1        0.1387
      2 C         139.8912  137.9014  164.4638 C.ar    1  UNL1        0.0384
      3 C         140.1506  137.6466  163.0085 C.ar    1  UNL1        0.0207
      4 C         140.6942  138.7425  162.1404 C.ar    1  UNL1        0.0671
      5 C         140.9784  140.0932  162.7276 C.ar    1  UNL1        0.0207
      6 C         140.7191  140.3480  164.1829 C.ar    1  UNL1        0.0384
      7 N         140.9535  138.4877  160.6852 N.ar    1  UNL1       -0.2729
      8 C         142.3070  138.0239  160.2346 C.ar    1  UNL1        0.0860
      9 C         142.5663  137.7690  158.7792 C.ar    1  UNL1        0.0561
     10 C         141.4722  137.9780  157.7747 C.ar    1  UNL1        0.1453
     11 C         140.1188  138.4418  158.2253 C.ar    1  UNL1        0.0980
     12 C         139.8594  138.6966  159.6805 C.ar    1  UNL1        0.2679
     13 O         138.5060  139.1604  160.1312 O.2     1  UNL1       -0.2665
     14 O         141.7316  137.7232  156.3194 O.3     1  UNL1       -0.4704
     15 C         142.8550  136.8199  155.9047 C.3     1  UNL1        0.2320
     16 C         142.7074  135.3326  156.0314 C.ar    1  UNL1        0.0212
     17 C         141.7083  134.6031  155.1831 C.ar    1  UNL1       -0.0007
     18 C         141.5606  133.1158  155.3098 C.ar    1  UNL1       -0.0002
     19 C         142.4120  132.3579  156.2848 C.ar    1  UNL1       -0.0000
     20 C         143.4111  133.0873  157.1332 C.ar    1  UNL1       -0.0002
     21 C         143.5588  134.5747  157.0065 C.ar    1  UNL1       -0.0007
     22 O         139.9161  139.5070  166.5062 O.3     1  UNL1       -0.4740
     23 C         139.9524  140.9081  167.0404 C.3     1  UNL1        0.2211
     24 C         139.5866  140.4650  169.9849 C.3     1  UNL1        0.0897
     25 N         140.8474  141.0957  169.4723 N.3     1  UNL1       -0.2696
     26 C         141.9252  141.5049  170.4318 C.3     1  UNL1        0.0722
     27 C         143.1859  142.1356  169.9192 C.3     1  UNL1        0.0174
     28 C         143.3688  142.3571  168.4470 C.3     1  UNL1        0.0029
     29 C         142.2910  141.9480  167.4874 C.3     1  UNL1        0.0198
     30 C         141.0303  141.3173  168.0001 C.3     1  UNL1        0.1016
@<TRIPOS>BOND
     1    24    25    1
     2    25    26    1
     3    26    27    1
     4    27    28    1
     5    28    29    1
     6    29    30    1
     7    30    23    1
     8    23    22    1
     9    22     1    1
    10     1     2   ar
    11     2     3   ar
    12     3     4   ar
    13     4     7    1
    14     7     8   ar
    15     8     9   ar
    16     9    10   ar
    17    10    14    1
    18    14    15    1
    19    15    16    1
    20    16    17   ar
    21    17    18   ar
    22    18    19   ar
    23    19    20   ar
    24    20    21   ar
    25    10    11   ar
    26    11    12   ar
    27    12    13    2
    28     4     5   ar
    29     5     6   ar
    30    30    25    1
    31     6     1   ar
    32    12     7   ar
    33    21    16   ar
