@<TRIPOS>MOLECULE
*****
 37 41 0 0 0
SMALL
GASTEIGER

@<TRIPOS>ATOM
      1 C         141.3050  139.3766  163.0412 C.3     1  UNL1        0.0257
      2 C         140.0328  138.9736  163.7262 C.3     1  UNL1        0.0259
      3 C         139.8196  139.3122  165.1718 C.3     1  UNL1        0.0925
      4 N         140.8784  140.0539  165.9325 N.pl3   1  UNL1       -0.2919
      5 C         142.1506  140.4570  165.2476 C.3     1  UNL1        0.0925
      6 C         142.3639  140.1184  163.8019 C.3     1  UNL1        0.0259
      7 C         140.6651  140.3926  167.3782 C.ar    1  UNL1        0.1520
      8 C         139.3737  140.0318  168.0503 C.ar    1  UNL1        0.0393
      9 C         139.1604  140.3704  169.4959 C.ar    1  UNL1        0.0436
     10 C         140.2387  141.0699  170.2694 C.ar    1  UNL1        0.1867
     11 N         140.3145  141.5284  171.6956 N.ar    1  UNL1       -0.1270
     12 N         141.6528  142.1726  171.9048 N.ar    1  UNL1       -0.1228
     13 C         142.4041  142.1122  170.6079 C.ar    1  UNL1        0.2583
     14 N         141.5301  141.4307  169.5972 N.ar    1  UNL1       -0.1866
     15 N         141.7434  141.0920  168.1516 N.ar    1  UNL1       -0.1473
     16 C         143.7867  142.6405  170.3645 C.3     1  UNL1        0.4541
     17 F         145.1694  143.1690  170.1211 F       1  UNL1       -0.1631
     18 F         143.4020  143.9418  171.0039 F       1  UNL1       -0.1631
     19 F         144.1714  141.3393  169.7252 F       1  UNL1       -0.1631
     20 C         141.9448  138.3607  158.7044 C.ar    1  UNL1        0.1386
     21 C         140.5564  138.3865  159.2718 C.ar    1  UNL1        0.0366
     22 C         140.3432  138.7251  160.7174 C.ar    1  UNL1       -0.0012
     23 C         141.5182  139.0380  161.5956 C.ar    1  UNL1       -0.0222
     24 C         142.9065  139.0122  161.0283 C.ar    1  UNL1       -0.0012
     25 C         143.1198  138.6735  159.5826 C.ar    1  UNL1        0.0366
     26 O         142.1580  138.0220  157.2588 O.3     1  UNL1       -0.4740
     27 C         141.2054  137.1009  156.5559 C.3     1  UNL1        0.2226
     28 C         141.7182  136.1267  155.5370 C.3     1  UNL1        0.1201
     29 C         143.0404  129.4817  156.6965 C.3     1  UNL1        0.0948
     30 C         143.6631  130.7210  157.2676 C.2     1  UNL1        0.2262
     31 O         144.7720  130.6089  158.2715 O.2     1  UNL1       -0.2749
     32 N         143.1769  132.0724  156.8350 N.am    1  UNL1       -0.2767
     33 C         142.0680  132.1845  155.8311 C.3     1  UNL1        0.1107
     34 C         141.5817  133.5360  155.3984 C.3     1  UNL1        0.0940
     35 N         142.2044  134.7753  155.9696 N.3     1  UNL1       -0.2666
     36 C         143.3134  134.6632  156.9735 C.3     1  UNL1        0.0940
     37 C         143.7996  133.3118  157.4062 C.3     1  UNL1        0.1107
@<TRIPOS>BOND
     1    29    30    1
     2    30    31    2
     3    30    32   am
     4    32    33    1
     5    33    34    1
     6    34    35    1
     7    35    28    1
     8    28    27    1
     9    27    26    1
    10    26    20    1
    11    20    21   ar
    12    21    22   ar
    13    22    23   ar
    14    23     1    1
    15     1     2    1
    16     2     3    1
    17     3     4    1
    18     4     7    1
    19     7     8   ar
    20     8     9   ar
    21     9    10   ar
    22    10    11   ar
    23    11    12   ar
    24    12    13   ar
    25    13    16    1
    26    16    17    1
    27    16    18    1
    28    16    19    1
    29    13    14   ar
    30    14    15   ar
    31     4     5    1
    32     5     6    1
    33    23    24   ar
    34    24    25   ar
    35    35    36    1
    36    36    37    1
    37    37    32    1
    38    25    20   ar
    39     6     1    1
    40    15     7   ar
    41    14    10   ar
@<TRIPOS>MOLECULE
*****
 37 41 0 0 0
SMALL
GASTEIGER

@<TRIPOS>ATOM
      1 C         139.9910  139.6104  163.0418 C.3     1  UNL1        0.0257
      2 C         139.9397  138.4608  164.0040 C.3     1  UNL1        0.0259
      3 C         139.9679  138.7176  165.4816 C.3     1  UNL1        0.0925
      4 N         140.0473  140.1241  165.9970 N.pl3   1  UNL1       -0.2919
      5 C         140.0985  141.2737  165.0348 C.3     1  UNL1        0.0925
      6 C         140.0703  141.0169  163.5572 C.3     1  UNL1        0.0259
      7 C         140.0754  140.3809  167.4746 C.ar    1  UNL1        0.1520
      8 C         138.9111  139.9750  168.3287 C.ar    1  UNL1        0.0393
      9 C         138.9393  140.2318  169.8063 C.ar    1  UNL1        0.0436
     10 C         140.1318  140.8945  170.4297 C.ar    1  UNL1        0.1867
     11 N         140.4423  141.2740  171.8474 N.ar    1  UNL1       -0.1270
     12 N         141.7985  141.9144  171.8694 N.ar    1  UNL1       -0.1228
     13 C         142.3262  141.9307  170.4654 C.ar    1  UNL1        0.2583
     14 N         141.2961  141.3004  169.5756 N.ar    1  UNL1       -0.1866
     15 N         141.2679  141.0436  168.0981 N.ar    1  UNL1       -0.1473
     16 C         143.6513  142.4808  170.0279 C.3     1  UNL1        0.4541
     17 F         144.9766  143.0308  169.5903 F       1  UNL1       -0.1631
     18 F         143.9222  141.2195  169.2625 F       1  UNL1       -0.1631
     19 F         143.3805  143.7421  170.7932 F       1  UNL1       -0.1631
     20 C         139.9065  138.8399  158.6091 C.ar    1  UNL1        0.1386
     21 C         141.0506  138.3338  159.4367 C.ar    1  UNL1        0.0366
     22 C         141.0788  138.5906  160.9142 C.ar    1  UNL1       -0.0012
     23 C         139.9628  139.3536  161.5643 C.ar    1  UNL1       -0.0222
     24 C         138.8187  139.8597  160.7367 C.ar    1  UNL1       -0.0012
     25 C         138.7905  139.6028  159.2591 C.ar    1  UNL1        0.0366
     26 O         139.8783  138.5830  157.1315 O.3     1  UNL1       -0.4740
     27 C         141.0728  137.9819  156.4519 C.3     1  UNL1        0.2226
     28 C         140.9217  136.7317  155.6369 C.3     1  UNL1        0.1201
     29 C         144.6067  130.9293  155.5926 C.3     1  UNL1        0.0948
     30 C         144.6385  132.1057  156.5227 C.2     1  UNL1        0.2262
     31 O         145.5995  132.1255  157.6743 O.2     1  UNL1       -0.2749
     32 N         143.7093  133.2622  156.3013 N.am    1  UNL1       -0.2767
     33 C         142.7483  133.2423  155.1497 C.3     1  UNL1        0.1107
     34 C         141.8191  134.3988  154.9282 C.3     1  UNL1        0.0940
     35 N         141.8509  135.5752  155.8583 N.3     1  UNL1       -0.2666
     36 C         142.8119  135.5951  157.0099 C.3     1  UNL1        0.0940
     37 C         143.7411  134.4386  157.2313 C.3     1  UNL1        0.1107
@<TRIPOS>BOND
     1    29    30    1
     2    30    31    2
     3    30    32   am
     4    32    33    1
     5    33    34    1
     6    34    35    1
     7    35    28    1
     8    28    27    1
     9    27    26    1
    10    26    20    1
    11    20    21   ar
    12    21    22   ar
    13    22    23   ar
    14    23     1    1
    15     1     2    1
    16     2     3    1
    17     3     4    1
    18     4     7    1
    19     7     8   ar
    20     8     9   ar
    21     9    10   ar
    22    10    11   ar
    23    11    12   ar
    24    12    13   ar
    25    13    16    1
    26    16    17    1
    27    16    18    1
    28    16    19    1
    29    13    14   ar
    30    14    15   ar
    31     4     5    1
    32     5     6    1
    33    23    24   ar
    34    24    25   ar
    35    35    36    1
    36    36    37    1
    37    37    32    1
    38    25    20   ar
    39     6     1    1
    40    15     7   ar
    41    14    10   ar
@<TRIPOS>MOLECULE
*****
 37 41 0 0 0
SMALL
GASTEIGER

@<TRIPOS>ATOM
      1 C         140.5322  138.9364  161.5424 C.3     1  UNL1        0.0257
      2 C         139.7736  137.8852  162.2972 C.3     1  UNL1        0.0259
      3 C         139.4710  138.0791  163.7535 C.3     1  UNL1        0.0925
      4 N         139.9268  139.3241  164.4550 N.pl3   1  UNL1       -0.2919
      5 C         140.6853  140.3753  163.7002 C.3     1  UNL1        0.0925
      6 C         140.9880  140.1814  162.2439 C.3     1  UNL1        0.0259
      7 C         139.6242  139.5180  165.9114 C.ar    1  UNL1        0.1520
      8 C         138.3532  138.9730  166.4922 C.ar    1  UNL1        0.0393
      9 C         138.0505  139.1668  167.9485 C.ar    1  UNL1        0.0436
     10 C         139.0189  139.9057  168.8239 C.ar    1  UNL1        0.1867
     11 N         138.9917  140.2494  170.2838 N.ar    1  UNL1       -0.1270
     12 N         140.2458  141.0069  170.6051 N.ar    1  UNL1       -0.1228
     13 C         141.0482  141.1313  169.3438 C.ar    1  UNL1        0.2583
     14 N         140.2899  140.4507  168.2430 N.ar    1  UNL1       -0.1866
     15 N         140.5925  140.2568  166.7867 N.ar    1  UNL1       -0.1473
     16 C         142.3758  141.8160  169.2073 C.3     1  UNL1        0.4541
     17 F         143.7035  142.5007  169.0708 F       1  UNL1       -0.1631
     18 F         143.0276  140.4955  168.9223 F       1  UNL1       -0.1631
     19 F         141.7240  143.1366  169.4924 F       1  UNL1       -0.1631
     20 C         141.4400  138.3548  157.1735 C.ar    1  UNL1        0.1386
     21 C         142.5467  138.2930  158.1842 C.ar    1  UNL1        0.0366
     22 C         142.2441  138.4869  159.6405 C.ar    1  UNL1       -0.0012
     23 C         140.8348  138.7425  160.0861 C.ar    1  UNL1       -0.0222
     24 C         139.7281  138.8043  159.0754 C.ar    1  UNL1       -0.0012
     25 C         140.0308  138.6104  157.6191 C.ar    1  UNL1        0.0366
     26 O         141.7427  138.1609  155.7172 O.3     1  UNL1       -0.4740
     27 C         142.2390  136.8339  155.2246 C.3     1  UNL1        0.2226
     28 C         141.3474  135.6293  155.2875 C.3     1  UNL1        0.1201
     29 C         144.6590  130.3303  158.1518 C.3     1  UNL1        0.0948
     30 C         143.5439  130.3653  157.1491 C.2     1  UNL1        0.2262
     31 O         142.9779  129.0842  156.6119 O.2     1  UNL1       -0.2749
     32 N         142.9948  131.6813  156.6837 N.am    1  UNL1       -0.2767
     33 C         143.5608  132.9622  157.2209 C.3     1  UNL1        0.1107
     34 C         143.0117  134.2783  156.7555 C.3     1  UNL1        0.0940
     35 N         141.8965  134.3133  155.7529 N.3     1  UNL1       -0.2666
     36 C         141.3306  133.0322  155.2156 C.3     1  UNL1        0.0940
     37 C         141.8797  131.7162  155.6811 C.3     1  UNL1        0.1107
@<TRIPOS>BOND
     1    29    30    1
     2    30    31    2
     3    30    32   am
     4    32    33    1
     5    33    34    1
     6    34    35    1
     7    35    28    1
     8    28    27    1
     9    27    26    1
    10    26    20    1
    11    20    21   ar
    12    21    22   ar
    13    22    23   ar
    14    23     1    1
    15     1     2    1
    16     2     3    1
    17     3     4    1
    18     4     7    1
    19     7     8   ar
    20     8     9   ar
    21     9    10   ar
    22    10    11   ar
    23    11    12   ar
    24    12    13   ar
    25    13    16    1
    26    16    17    1
    27    16    18    1
    28    16    19    1
    29    13    14   ar
    30    14    15   ar
    31     4     5    1
    32     5     6    1
    33    23    24   ar
    34    24    25   ar
    35    35    36    1
    36    36    37    1
    37    37    32    1
    38    25    20   ar
    39     6     1    1
    40    15     7   ar
    41    14    10   ar
@<TRIPOS>MOLECULE
*****
 37 41 0 0 0
SMALL
GASTEIGER

@<TRIPOS>ATOM
      1 C         142.8941  139.9983  163.1428 C.3     1  UNL1        0.0257
      2 C         142.5320  141.4179  163.4650 C.3     1  UNL1        0.0259
      3 C         142.4239  141.8582  164.8948 C.3     1  UNL1        0.0925
      4 N         142.6778  140.8791  166.0024 N.pl3   1  UNL1       -0.2919
      5 C         143.0399  139.4596  165.6802 C.3     1  UNL1        0.0925
      6 C         143.1480  139.0191  164.2504 C.3     1  UNL1        0.0259
      7 C         142.5697  141.3196  167.4322 C.ar    1  UNL1        0.1520
      8 C         143.6333  142.1916  168.0309 C.ar    1  UNL1        0.0393
      9 C         143.5251  142.6320  169.4607 C.ar    1  UNL1        0.0436
     10 C         142.3533  142.2004  170.2918 C.ar    1  UNL1        0.1867
     11 N         141.9792  142.4748  171.7183 N.ar    1  UNL1       -0.1270
     12 N         140.6845  141.7723  172.0012 N.ar    1  UNL1       -0.1228
     13 C         140.2583  141.0639  170.7496 C.ar    1  UNL1        0.2583
     14 N         141.2898  141.3284  169.6931 N.ar    1  UNL1       -0.1866
     15 N         141.3979  140.8880  168.2634 N.ar    1  UNL1       -0.1473
     16 C         139.0185  140.2361  170.5836 C.3     1  UNL1        0.4541
     17 F         137.7786  139.4083  170.4176 F       1  UNL1       -0.1631
     18 F         139.5766  139.2111  171.5258 F       1  UNL1       -0.1631
     19 F         138.4603  141.2611  169.6414 F       1  UNL1       -0.1631
     20 C         143.2184  138.6770  158.8534 C.ar    1  UNL1        0.1386
     21 C         143.4936  140.1050  159.2212 C.ar    1  UNL1        0.0366
     22 C         143.3855  140.5454  160.6510 C.ar    1  UNL1       -0.0012
     23 C         143.0022  139.5579  161.7130 C.ar    1  UNL1       -0.0222
     24 C         142.7270  138.1300  161.3452 C.ar    1  UNL1       -0.0012
     25 C         142.8351  137.6895  159.9154 C.ar    1  UNL1        0.0366
     26 O         143.3265  138.2366  157.4236 O.3     1  UNL1       -0.4740
     27 C         142.7307  136.9286  156.9946 C.3     1  UNL1        0.2226
     28 C         143.5854  135.9038  156.3097 C.3     1  UNL1        0.1201
     29 C         140.1515  130.1850  154.6505 C.3     1  UNL1        0.0948
     30 C         141.4593  130.3740  155.3604 C.2     1  UNL1        0.2262
     31 O         142.2356  129.1806  155.8329 O.2     1  UNL1       -0.2749
     32 N         141.9909  131.7564  155.5977 N.am    1  UNL1       -0.2767
     33 C         141.2146  132.9498  155.1252 C.3     1  UNL1        0.1107
     34 C         141.7461  134.3323  155.3625 C.3     1  UNL1        0.0940
     35 N         143.0539  134.5214  156.0723 N.3     1  UNL1       -0.2666
     36 C         143.8302  133.3279  156.5449 C.3     1  UNL1        0.0940
     37 C         143.2987  131.9455  156.3075 C.3     1  UNL1        0.1107
@<TRIPOS>BOND
     1    29    30    1
     2    30    31    2
     3    30    32   am
     4    32    33    1
     5    33    34    1
     6    34    35    1
     7    35    28    1
     8    28    27    1
     9    27    26    1
    10    26    20    1
    11    20    21   ar
    12    21    22   ar
    13    22    23   ar
    14    23     1    1
    15     1     2    1
    16     2     3    1
    17     3     4    1
    18     4     7    1
    19     7     8   ar
    20     8     9   ar
    21     9    10   ar
    22    10    11   ar
    23    11    12   ar
    24    12    13   ar
    25    13    16    1
    26    16    17    1
    27    16    18    1
    28    16    19    1
    29    13    14   ar
    30    14    15   ar
    31     4     5    1
    32     5     6    1
    33    23    24   ar
    34    24    25   ar
    35    35    36    1
    36    36    37    1
    37    37    32    1
    38    25    20   ar
    39     6     1    1
    40    15     7   ar
    41    14    10   ar
@<TRIPOS>MOLECULE
*****
 37 41 0 0 0
SMALL
GASTEIGER

@<TRIPOS>ATOM
      1 C         141.2123  139.2104  163.1297 C.3     1  UNL1        0.0257
      2 C         140.0160  140.0206  163.5328 C.3     1  UNL1        0.0259
      3 C         139.8099  140.3886  164.9723 C.3     1  UNL1        0.0925
      4 N         140.8001  139.9464  166.0087 N.pl3   1  UNL1       -0.2919
      5 C         141.9963  139.1362  165.6056 C.3     1  UNL1        0.0925
      6 C         142.2024  138.7681  164.1661 C.3     1  UNL1        0.0259
      7 C         140.5939  140.3144  167.4482 C.ar    1  UNL1        0.1520
      8 C         139.3001  139.9806  168.1298 C.ar    1  UNL1        0.0393
      9 C         139.0940  140.3486  169.5692 C.ar    1  UNL1        0.0436
     10 C         140.1817  141.0505  170.3271 C.ar    1  UNL1        0.1867
     11 N         140.2659  141.5349  171.7443 N.ar    1  UNL1       -0.1270
     12 N         141.6118  142.1681  171.9385 N.ar    1  UNL1       -0.1228
     13 C         142.3593  142.0751  170.6413 C.ar    1  UNL1        0.2583
     14 N         141.4755  141.3844  169.6454 N.ar    1  UNL1       -0.1866
     15 N         141.6816  141.0164  168.2060 N.ar    1  UNL1       -0.1473
     16 C         143.7470  142.5835  170.3851 C.3     1  UNL1        0.4541
     17 F         145.1349  143.0919  170.1287 F       1  UNL1       -0.1631
     18 F         144.1678  141.2128  169.9443 F       1  UNL1       -0.1631
     19 F         143.3263  143.9541  170.8258 F       1  UNL1       -0.1631
     20 C         141.8306  138.1064  158.8113 C.ar    1  UNL1        0.1386
     21 C         142.8955  137.8022  159.8231 C.ar    1  UNL1        0.0366
     22 C         142.6894  138.1702  161.2625 C.ar    1  UNL1       -0.0012
     23 C         141.4184  138.8424  161.6903 C.ar    1  UNL1       -0.0222
     24 C         140.3536  139.1465  160.6786 C.ar    1  UNL1       -0.0012
     25 C         140.5597  138.7785  159.2390 C.ar    1  UNL1        0.0366
     26 O         142.0367  137.7384  157.3718 O.3     1  UNL1       -0.4740
     27 C         142.8361  138.6366  156.4752 C.3     1  UNL1        0.2226
     28 C         142.2651  139.9490  156.0261 C.3     1  UNL1        0.1201
     29 C         140.3677  145.3292  159.8605 C.3     1  UNL1        0.0948
     30 C         141.5537  144.4170  159.9669 C.2     1  UNL1        0.2262
     31 O         142.5618  144.6219  161.0586 O.2     1  UNL1       -0.2749
     32 N         141.7315  143.3000  158.9817 N.am    1  UNL1       -0.2767
     33 C         140.7234  143.0952  157.8901 C.3     1  UNL1        0.1107
     34 C         140.9012  141.9781  156.9048 C.3     1  UNL1        0.0940
     35 N         142.0872  141.0660  157.0112 N.3     1  UNL1       -0.2666
     36 C         143.0954  141.2708  158.1029 C.3     1  UNL1        0.0940
     37 C         142.9175  142.3878  159.0881 C.3     1  UNL1        0.1107
@<TRIPOS>BOND
     1    29    30    1
     2    30    31    2
     3    30    32   am
     4    32    33    1
     5    33    34    1
     6    34    35    1
     7    35    28    1
     8    28    27    1
     9    27    26    1
    10    26    20    1
    11    20    21   ar
    12    21    22   ar
    13    22    23   ar
    14    23     1    1
    15     1     2    1
    16     2     3    1
    17     3     4    1
    18     4     7    1
    19     7     8   ar
    20     8     9   ar
    21     9    10   ar
    22    10    11   ar
    23    11    12   ar
    24    12    13   ar
    25    13    16    1
    26    16    17    1
    27    16    18    1
    28    16    19    1
    29    13    14   ar
    30    14    15   ar
    31     4     5    1
    32     5     6    1
    33    23    24   ar
    34    24    25   ar
    35    35    36    1
    36    36    37    1
    37    37    32    1
    38    25    20   ar
    39     6     1    1
    40    15     7   ar
    41    14    10   ar
@<TRIPOS>MOLECULE
*****
 37 41 0 0 0
SMALL
GASTEIGER

@<TRIPOS>ATOM
      1 C         140.9736  143.1760  162.0509 C.3     1  UNL1        0.0257
      2 C         140.3491  144.0188  163.1232 C.3     1  UNL1        0.0259
      3 C         140.0698  143.4287  164.4736 C.3     1  UNL1        0.0925
      4 N         140.4150  141.9957  164.7518 N.pl3   1  UNL1       -0.2919
      5 C         141.0395  141.1529  163.6797 C.3     1  UNL1        0.0925
      6 C         141.3188  141.7431  162.3292 C.3     1  UNL1        0.0259
      7 C         140.1358  141.4055  166.1024 C.ar    1  UNL1        0.1520
      8 C         139.1981  140.2420  166.2331 C.ar    1  UNL1        0.0393
      9 C         138.9189  139.6519  167.5835 C.ar    1  UNL1        0.0436
     10 C         139.5773  140.2253  168.8032 C.ar    1  UNL1        0.1867
     11 N         139.4956  139.8565  170.2550 N.ar    1  UNL1       -0.1270
     12 N         140.3828  140.7922  171.0214 N.ar    1  UNL1       -0.1228
     13 C         141.0127  141.7392  170.0434 C.ar    1  UNL1        0.2583
     14 N         140.5149  141.3888  168.6725 N.ar    1  UNL1       -0.1866
     15 N         140.7941  141.9789  167.3221 N.ar    1  UNL1       -0.1473
     16 C         141.9721  142.8428  170.3777 C.3     1  UNL1        0.4541
     17 F         142.9315  143.9463  170.7119 F       1  UNL1       -0.1631
     18 F         143.0448  141.8291  170.6457 F       1  UNL1       -0.1631
     19 F         140.8994  143.8564  170.1096 F       1  UNL1       -0.1631
     20 C         141.8113  144.9466  157.9996 C.ar    1  UNL1        0.1386
     21 C         142.6036  143.7674  158.4812 C.ar    1  UNL1        0.0366
     22 C         142.3243  143.1772  159.8316 C.ar    1  UNL1       -0.0012
     23 C         141.2529  143.7662  160.7005 C.ar    1  UNL1       -0.0222
     24 C         140.4606  144.9454  160.2190 C.ar    1  UNL1       -0.0012
     25 C         140.7399  145.5356  158.8685 C.ar    1  UNL1        0.0366
     26 O         142.0906  145.5368  156.6492 O.3     1  UNL1       -0.4740
     27 C         141.1312  145.3100  155.5187 C.3     1  UNL1        0.2226
     28 C         139.7782  145.9573  155.5419 C.3     1  UNL1        0.1201
     29 C         138.3598  152.6583  154.9636 C.3     1  UNL1        0.0948
     30 C         139.2016  151.7556  154.1112 C.2     1  UNL1        0.2262
     31 O         139.8992  152.3025  152.9011 O.2     1  UNL1       -0.2749
     32 N         139.3458  150.3060  154.4688 N.am    1  UNL1       -0.2767
     33 C         138.6481  149.7591  155.6789 C.3     1  UNL1        0.1107
     34 C         138.7923  148.3095  156.0366 C.3     1  UNL1        0.0940
     35 N         139.6341  147.4068  155.1842 N.3     1  UNL1       -0.2666
     36 C         140.3317  147.9538  153.9741 C.3     1  UNL1        0.0940
     37 C         140.1875  149.4033  153.6165 C.3     1  UNL1        0.1107
@<TRIPOS>BOND
     1    29    30    1
     2    30    31    2
     3    30    32   am
     4    32    33    1
     5    33    34    1
     6    34    35    1
     7    35    28    1
     8    28    27    1
     9    27    26    1
    10    26    20    1
    11    20    21   ar
    12    21    22   ar
    13    22    23   ar
    14    23     1    1
    15     1     2    1
    16     2     3    1
    17     3     4    1
    18     4     7    1
    19     7     8   ar
    20     8     9   ar
    21     9    10   ar
    22    10    11   ar
    23    11    12   ar
    24    12    13   ar
    25    13    16    1
    26    16    17    1
    27    16    18    1
    28    16    19    1
    29    13    14   ar
    30    14    15   ar
    31     4     5    1
    32     5     6    1
    33    23    24   ar
    34    24    25   ar
    35    35    36    1
    36    36    37    1
    37    37    32    1
    38    25    20   ar
    39     6     1    1
    40    15     7   ar
    41    14    10   ar
@<TRIPOS>MOLECULE
*****
 37 41 0 0 0
SMALL
GASTEIGER

@<TRIPOS>ATOM
      1 C         138.6722  140.7950  162.3387 C.3     1  UNL1        0.0257
      2 C         137.7936  139.7280  161.7561 C.3     1  UNL1        0.0259
      3 C         137.4891  139.7263  160.2873 C.3     1  UNL1        0.0925
      4 N         138.0633  140.7917  159.4012 N.pl3   1  UNL1       -0.2919
      5 C         138.9419  141.8588  159.9837 C.3     1  UNL1        0.0925
      6 C         139.2464  141.8604  161.4526 C.3     1  UNL1        0.0259
      7 C         137.7588  140.7900  157.9323 C.ar    1  UNL1        0.1520
      8 C         138.8649  140.9784  156.9369 C.ar    1  UNL1        0.0393
      9 C         138.5603  140.9767  155.4682 C.ar    1  UNL1        0.0436
     10 C         137.1497  140.7867  154.9949 C.ar    1  UNL1        0.1867
     11 N         136.5497  140.7396  153.6208 N.ar    1  UNL1       -0.1270
     12 N         135.0728  140.5221  153.7672 N.ar    1  UNL1       -0.1228
     13 C         134.7600  140.4348  155.2316 C.ar    1  UNL1        0.2583
     14 N         136.0436  140.5983  155.9904 N.ar    1  UNL1       -0.1866
     15 N         136.3481  140.6000  157.4591 N.ar    1  UNL1       -0.1473
     16 C         133.4021  140.2214  155.8319 C.3     1  UNL1        0.4541
     17 F         132.0440  140.0080  156.4323 F       1  UNL1       -0.1631
     18 F         133.0854  141.6738  155.6319 F       1  UNL1       -0.1631
     19 F         133.7187  138.7689  156.0319 F       1  UNL1       -0.1631
     20 C         139.5856  140.7999  166.7450 C.ar    1  UNL1        0.1386
     21 C         139.8336  142.0321  165.9263 C.ar    1  UNL1        0.0366
     22 C         139.5291  142.0305  164.4575 C.ar    1  UNL1       -0.0012
     23 C         138.9767  140.7967  163.8075 C.ar    1  UNL1       -0.0222
     24 C         138.7287  139.5645  164.6261 C.ar    1  UNL1       -0.0012
     25 C         139.0332  139.5661  166.0950 C.ar    1  UNL1        0.0366
     26 O         139.8901  140.8016  168.2138 O.3     1  UNL1       -0.4740
     27 C         141.0912  140.0673  168.7315 C.3     1  UNL1        0.2226
     28 C         142.4626  140.4395  168.2508 C.3     1  UNL1        0.1201
     29 C         143.8457  138.1603  161.9150 C.3     1  UNL1        0.0948
     30 C         143.9825  139.5266  162.5187 C.2     1  UNL1        0.2262
     31 O         144.4992  140.6647  161.6894 O.2     1  UNL1       -0.2749
     32 N         143.6025  139.7548  163.9517 N.am    1  UNL1       -0.2767
     33 C         143.0858  138.6167  164.7810 C.3     1  UNL1        0.1107
     34 C         142.7058  138.8449  166.2140 C.3     1  UNL1        0.0940
     35 N         142.8425  140.2112  166.8178 N.3     1  UNL1       -0.2666
     36 C         143.3593  141.3493  165.9884 C.3     1  UNL1        0.0940
     37 C         143.7393  141.1211  164.5555 C.3     1  UNL1        0.1107
@<TRIPOS>BOND
     1    29    30    1
     2    30    31    2
     3    30    32   am
     4    32    33    1
     5    33    34    1
     6    34    35    1
     7    35    28    1
     8    28    27    1
     9    27    26    1
    10    26    20    1
    11    20    21   ar
    12    21    22   ar
    13    22    23   ar
    14    23     1    1
    15     1     2    1
    16     2     3    1
    17     3     4    1
    18     4     7    1
    19     7     8   ar
    20     8     9   ar
    21     9    10   ar
    22    10    11   ar
    23    11    12   ar
    24    12    13   ar
    25    13    16    1
    26    16    17    1
    27    16    18    1
    28    16    19    1
    29    13    14   ar
    30    14    15   ar
    31     4     5    1
    32     5     6    1
    33    23    24   ar
    34    24    25   ar
    35    35    36    1
    36    36    37    1
    37    37    32    1
    38    25    20   ar
    39     6     1    1
    40    15     7   ar
    41    14    10   ar
@<TRIPOS>MOLECULE
*****
 37 41 0 0 0
SMALL
GASTEIGER

@<TRIPOS>ATOM
      1 C         140.6114  138.9572  157.9179 C.3     1  UNL1        0.0257
      2 C         139.6470  138.3560  156.9387 C.3     1  UNL1        0.0259
      3 C         140.0472  137.1563  156.1322 C.3     1  UNL1        0.0925
      4 N         141.4117  136.5578  156.3047 N.pl3   1  UNL1       -0.2919
      5 C         142.3761  137.1589  157.2837 C.3     1  UNL1        0.0925
      6 C         141.9759  138.3586  158.0904 C.3     1  UNL1        0.0259
      7 C         141.8119  135.3580  155.4980 C.ar    1  UNL1        0.1520
      8 C         141.4359  135.2694  154.0487 C.ar    1  UNL1        0.0393
      9 C         141.8361  134.0697  153.2421 C.ar    1  UNL1        0.0436
     10 C         142.6122  132.9587  153.8850 C.ar    1  UNL1        0.1867
     11 N         143.1419  131.6624  153.3471 N.ar    1  UNL1       -0.1270
     12 N         143.8452  130.9500  154.4641 N.ar    1  UNL1       -0.1228
     13 C         143.7502  131.8059  155.6923 C.ar    1  UNL1        0.2583
     14 N         142.9881  133.0473  155.3343 N.ar    1  UNL1       -0.1866
     15 N         142.5880  134.2470  156.1409 N.ar    1  UNL1       -0.1473
     16 C         144.3176  131.4780  157.0416 C.3     1  UNL1        0.4541
     17 F         144.8851  131.1501  158.3909 F       1  UNL1       -0.1631
     18 F         145.6879  131.8457  156.5547 F       1  UNL1       -0.1631
     19 F         142.9473  131.1102  157.5284 F       1  UNL1       -0.1631
     20 C         139.4108  142.5563  160.3376 C.ar    1  UNL1        0.1386
     21 C         138.5027  141.3646  160.2646 C.ar    1  UNL1        0.0366
     22 C         138.9029  140.1650  159.4581 C.ar    1  UNL1       -0.0012
     23 C         140.2112  140.1569  158.7244 C.ar    1  UNL1       -0.0222
     24 C         141.1193  141.3485  158.7973 C.ar    1  UNL1       -0.0012
     25 C         140.7191  142.5482  159.6039 C.ar    1  UNL1        0.0366
     26 O         139.0107  143.7560  161.1441 O.3     1  UNL1       -0.4740
     27 C         138.5271  143.5847  162.5536 C.3     1  UNL1        0.2226
     28 C         139.4797  143.7569  163.6995 C.3     1  UNL1        0.1201
     29 C         144.9795  139.6681  164.2319 C.3     1  UNL1        0.0948
     30 C         144.8177  141.0191  163.6005 C.2     1  UNL1        0.2262
     31 O         145.9904  141.6857  162.9444 O.2     1  UNL1       -0.2749
     32 N         143.4832  141.7035  163.6253 N.am    1  UNL1       -0.2767
     33 C         142.3106  141.0370  164.2814 C.3     1  UNL1        0.1107
     34 C         140.9760  141.7214  164.3062 C.3     1  UNL1        0.0940
     35 N         140.8141  143.0724  163.6748 N.3     1  UNL1       -0.2666
     36 C         141.9869  143.7390  163.0186 C.3     1  UNL1        0.0940
     37 C         143.3214  143.0545  162.9939 C.3     1  UNL1        0.1107
@<TRIPOS>BOND
     1    29    30    1
     2    30    31    2
     3    30    32   am
     4    32    33    1
     5    33    34    1
     6    34    35    1
     7    35    28    1
     8    28    27    1
     9    27    26    1
    10    26    20    1
    11    20    21   ar
    12    21    22   ar
    13    22    23   ar
    14    23     1    1
    15     1     2    1
    16     2     3    1
    17     3     4    1
    18     4     7    1
    19     7     8   ar
    20     8     9   ar
    21     9    10   ar
    22    10    11   ar
    23    11    12   ar
    24    12    13   ar
    25    13    16    1
    26    16    17    1
    27    16    18    1
    28    16    19    1
    29    13    14   ar
    30    14    15   ar
    31     4     5    1
    32     5     6    1
    33    23    24   ar
    34    24    25   ar
    35    35    36    1
    36    36    37    1
    37    37    32    1
    38    25    20   ar
    39     6     1    1
    40    15     7   ar
    41    14    10   ar
@<TRIPOS>MOLECULE
*****
 37 41 0 0 0
SMALL
GASTEIGER

@<TRIPOS>ATOM
      1 C         141.0773  142.8055  161.5732 C.3     1  UNL1        0.0257
      2 C         141.7774  143.6316  162.6113 C.3     1  UNL1        0.0259
      3 C         142.0887  143.0415  163.9547 C.3     1  UNL1        0.0925
      4 N         141.7000  141.6253  164.2601 N.pl3   1  UNL1       -0.2919
      5 C         141.0000  140.7992  163.2221 C.3     1  UNL1        0.0925
      6 C         140.6886  141.3893  161.8786 C.3     1  UNL1        0.0259
      7 C         142.0114  141.0352  165.6036 C.ar    1  UNL1        0.1520
      8 C         142.6498  139.6812  165.6984 C.ar    1  UNL1        0.0393
      9 C         142.9611  139.0912  167.0418 C.ar    1  UNL1        0.0436
     10 C         142.6340  139.8552  168.2905 C.ar    1  UNL1        0.1867
     11 N         142.8227  139.5322  169.7432 N.ar    1  UNL1       -0.1270
     12 N         142.3009  140.6867  170.5462 N.ar    1  UNL1       -0.1228
     13 C         141.7897  141.7231  169.5899 C.ar    1  UNL1        0.2583
     14 N         141.9956  141.2092  168.1958 N.ar    1  UNL1       -0.1866
     15 N         141.6843  141.7992  166.8524 N.ar    1  UNL1       -0.1473
     16 C         141.1798  143.0419  169.9622 C.3     1  UNL1        0.4541
     17 F         140.5698  144.3608  170.3346 F       1  UNL1       -0.1631
     18 F         142.5484  143.6079  170.1997 F       1  UNL1       -0.1631
     19 F         139.8111  142.4760  169.7248 F       1  UNL1       -0.1631
     20 C         140.1433  144.5758  157.5429 C.ar    1  UNL1        0.1386
     21 C         141.1870  145.2073  158.4159 C.ar    1  UNL1        0.0366
     22 C         141.4983  144.6172  159.7593 C.ar    1  UNL1       -0.0012
     23 C         140.7660  143.3956  160.2298 C.ar    1  UNL1       -0.0222
     24 C         139.7224  142.7641  159.3569 C.ar    1  UNL1       -0.0012
     25 C         139.4110  143.3542  158.0134 C.ar    1  UNL1        0.0366
     26 O         139.8320  145.1659  156.1995 O.3     1  UNL1       -0.4740
     27 C         139.9907  146.6402  155.9729 C.3     1  UNL1        0.2226
     28 C         138.8953  147.4188  155.3066 C.3     1  UNL1        0.1201
     29 C         140.3795  153.6819  152.8942 C.3     1  UNL1        0.0948
     30 C         139.6491  153.2543  154.1326 C.2     1  UNL1        0.2262
     31 O         139.1070  154.2856  155.0774 O.2     1  UNL1       -0.2749
     32 N         139.4606  151.7954  154.4261 N.am    1  UNL1       -0.2767
     33 C         140.0026  150.7642  153.4812 C.3     1  UNL1        0.1107
     34 C         139.8142  149.3053  153.7747 C.3     1  UNL1        0.0940
     35 N         139.0837  148.8776  155.0131 N.3     1  UNL1       -0.2666
     36 C         138.5417  149.9089  155.9579 C.3     1  UNL1        0.0940
     37 C         138.7301  151.3678  155.6644 C.3     1  UNL1        0.1107
@<TRIPOS>BOND
     1    29    30    1
     2    30    31    2
     3    30    32   am
     4    32    33    1
     5    33    34    1
     6    34    35    1
     7    35    28    1
     8    28    27    1
     9    27    26    1
    10    26    20    1
    11    20    21   ar
    12    21    22   ar
    13    22    23   ar
    14    23     1    1
    15     1     2    1
    16     2     3    1
    17     3     4    1
    18     4     7    1
    19     7     8   ar
    20     8     9   ar
    21     9    10   ar
    22    10    11   ar
    23    11    12   ar
    24    12    13   ar
    25    13    16    1
    26    16    17    1
    27    16    18    1
    28    16    19    1
    29    13    14   ar
    30    14    15   ar
    31     4     5    1
    32     5     6    1
    33    23    24   ar
    34    24    25   ar
    35    35    36    1
    36    36    37    1
    37    37    32    1
    38    25    20   ar
    39     6     1    1
    40    15     7   ar
    41    14    10   ar
