@<TRIPOS>MOLECULE
*****
 35 39 0 0 0
SMALL
GASTEIGER

@<TRIPOS>ATOM
      1 C         142.2258  134.6363  154.6514 C.ar    1  UNL1        0.0087
      2 C         143.3748  134.6127  155.6153 C.ar    1  UNL1       -0.0017
      3 C         143.3790  135.5329  156.7999 C.ar    1  UNL1        0.0027
      4 C         142.2342  136.4766  157.0206 C.ar    1  UNL1        0.0352
      5 C         142.2384  137.3968  158.2052 C.ar    1  UNL1        0.1060
      6 N         143.2254  137.5975  159.3167 N.ar    1  UNL1       -0.2134
      7 C         142.6905  138.6653  160.2243 C.ar    1  UNL1        0.2015
      8 N         141.3729  139.1245  159.6737 N.ar    1  UNL1       -0.2915
      9 C         141.0936  138.3405  158.4258 C.ar    1  UNL1        0.1370
     10 C         139.9445  138.3641  157.4619 C.ar    1  UNL1        0.2783
     11 O         138.7997  139.3078  157.6825 O.2     1  UNL1       -0.2653
     12 N         139.9403  137.4439  156.2773 N.ar    1  UNL1       -0.2923
     13 C         138.7913  137.4675  155.3133 C.3     1  UNL1        0.1336
     14 C         141.0852  136.5002  156.0566 C.ar    1  UNL1        0.0638
     15 C         141.0810  135.5800  154.8721 C.ar    1  UNL1        0.0155
     16 N         143.3563  139.1830  161.4648 N.pl3   1  UNL1       -0.2782
     17 C         143.1307  138.4966  162.7793 C.3     1  UNL1        0.0937
     18 C         143.7965  139.0143  164.0197 C.3     1  UNL1        0.0229
     19 C         144.6879  140.2184  163.9456 C.3     1  UNL1        0.0190
     20 C         144.9135  140.9049  162.6312 C.3     1  UNL1        0.0710
     21 N         145.8049  142.1090  162.5571 N.3     1  UNL1       -0.3208
     22 C         144.2477  140.3871  161.3908 C.3     1  UNL1        0.1089
     23 H         145.7695  142.5008  161.6160 H       1  UNL1        0.1189
     24 H         146.7631  141.8367  162.7762 H       1  UNL1        0.1189
     25 C         142.2217  133.7161  153.4668 C.3     1  UNL1        0.1687
     26 C         141.2528  131.5876  154.5985 C.3     1  UNL1        0.1746
     27 O         142.2413  132.2302  153.6713 O.3     1  UNL1       -0.3463
     28 C         140.4899  140.1820  160.2669 C.3     1  UNL1        0.1364
     29 C         140.1028  140.1109  161.7143 C.ar    1  UNL1        0.0111
     30 C         140.6276  141.1299  162.6818 C.ar    1  UNL1       -0.0016
     31 C         140.2406  141.0588  164.1293 C.ar    1  UNL1       -0.0002
     32 C         139.3289  139.9687  164.6092 C.ar    1  UNL1        0.0008
     33 C         138.8041  138.9497  163.6416 C.ar    1  UNL1        0.0111
     34 C         139.1911  139.0208  162.1942 C.ar    1  UNL1        0.0555
     35 CL        138.6663  138.0017  161.2266 Cl      1  UNL1       -0.0825
@<TRIPOS>BOND
     1    26    27    1
     2    27    25    1
     3    25     1    1
     4     1     2   ar
     5     2     3   ar
     6     3     4   ar
     7     4     5   ar
     8     5     6   ar
     9     6     7   ar
    10     7    16    1
    11    16    17    1
    12    17    18    1
    13    18    19    1
    14    19    20    1
    15    20    21    1
    16    20    22    1
    17     7     8   ar
    18     8    28    1
    19    28    29    1
    20    29    30   ar
    21    30    31   ar
    22    31    32   ar
    23    32    33   ar
    24    33    34   ar
    25    34    35    1
    26     8     9   ar
    27     9    10   ar
    28    10    11    2
    29    10    12   ar
    30    12    13    1
    31    12    14   ar
    32    14    15   ar
    33    15     1   ar
    34    14     4   ar
    35     9     5   ar
    36    22    16    1
    37    34    29   ar
    38    21    23    1
    39    21    24    1
@<TRIPOS>MOLECULE
*****
 35 39 0 0 0
SMALL
GASTEIGER

@<TRIPOS>ATOM
      1 C         138.2946  138.8933  165.7247 C.ar    1  UNL1        0.0087
      2 C         138.9169  137.7187  165.0297 C.ar    1  UNL1       -0.0017
      3 C         139.2804  137.8127  163.5775 C.ar    1  UNL1        0.0027
      4 C         139.0216  139.0813  162.8202 C.ar    1  UNL1        0.0352
      5 C         139.3850  139.1754  161.3679 C.ar    1  UNL1        0.1060
      6 N         140.0063  138.1900  160.4229 N.ar    1  UNL1       -0.2134
      7 C         140.1314  138.8496  159.0816 C.ar    1  UNL1        0.2015
      8 N         139.5875  140.2427  159.1976 N.ar    1  UNL1       -0.2915
      9 C         139.1262  140.4440  160.6106 C.ar    1  UNL1        0.1370
     10 C         138.5039  141.6187  161.3055 C.ar    1  UNL1        0.2783
     11 O         138.2451  142.8873  160.5482 O.2     1  UNL1       -0.2653
     12 N         138.1404  141.5247  162.7578 N.ar    1  UNL1       -0.2923
     13 C         137.5182  142.6993  163.4528 C.3     1  UNL1        0.1336
     14 C         138.3993  140.2560  163.5151 C.ar    1  UNL1        0.0638
     15 C         138.0358  140.1619  164.9674 C.ar    1  UNL1        0.0155
     16 N         140.7006  138.2257  157.8418 N.pl3   1  UNL1       -0.2782
     17 C         139.7994  137.5053  156.8832 C.3     1  UNL1        0.0937
     18 C         140.3686  136.8814  155.6436 C.3     1  UNL1        0.0229
     19 C         141.8389  136.9780  155.3625 C.3     1  UNL1        0.0190
     20 C         142.7400  137.6984  156.3211 C.3     1  UNL1        0.0710
     21 N         144.2102  137.7950  156.0400 N.3     1  UNL1       -0.3208
     22 C         142.1708  138.3223  157.5608 C.3     1  UNL1        0.1089
     23 H         144.6803  138.2303  156.8337 H       1  UNL1        0.1189
     24 H         144.3602  138.3602  155.2043 H       1  UNL1        0.1189
     25 C         137.9312  138.7993  167.1769 C.3     1  UNL1        0.1687
     26 C         140.1529  139.9530  167.8719 C.3     1  UNL1        0.1746
     27 O         138.7578  139.5136  168.2047 O.3     1  UNL1       -0.3463
     28 C         139.5172  141.2565  158.0943 C.3     1  UNL1        0.1364
     29 C         138.5472  141.0704  156.9654 C.ar    1  UNL1        0.0111
     30 C         137.0722  141.1653  157.2207 C.ar    1  UNL1       -0.0016
     31 C         136.1021  140.9793  156.0919 C.ar    1  UNL1       -0.0002
     32 C         136.6071  140.6983  154.7077 C.ar    1  UNL1        0.0008
     33 C         138.0821  140.6034  154.4523 C.ar    1  UNL1        0.0111
     34 C         139.0522  140.7894  155.5812 C.ar    1  UNL1        0.0555
     35 CL        140.5273  140.6945  155.3258 Cl      1  UNL1       -0.0825
@<TRIPOS>BOND
     1    26    27    1
     2    27    25    1
     3    25     1    1
     4     1     2   ar
     5     2     3   ar
     6     3     4   ar
     7     4     5   ar
     8     5     6   ar
     9     6     7   ar
    10     7    16    1
    11    16    17    1
    12    17    18    1
    13    18    19    1
    14    19    20    1
    15    20    21    1
    16    20    22    1
    17     7     8   ar
    18     8    28    1
    19    28    29    1
    20    29    30   ar
    21    30    31   ar
    22    31    32   ar
    23    32    33   ar
    24    33    34   ar
    25    34    35    1
    26     8     9   ar
    27     9    10   ar
    28    10    11    2
    29    10    12   ar
    30    12    13    1
    31    12    14   ar
    32    14    15   ar
    33    15     1   ar
    34    14     4   ar
    35     9     5   ar
    36    22    16    1
    37    34    29   ar
    38    21    23    1
    39    21    24    1
@<TRIPOS>MOLECULE
*****
 35 39 0 0 0
SMALL
GASTEIGER

@<TRIPOS>ATOM
      1 C         146.3555  141.4832  155.9982 C.ar    1  UNL1        0.0087
      2 C         146.2016  142.5774  157.0127 C.ar    1  UNL1       -0.0017
      3 C         145.0962  142.5120  158.0245 C.ar    1  UNL1        0.0027
      4 C         144.1447  141.3525  158.0220 C.ar    1  UNL1        0.0352
      5 C         143.0393  141.2872  159.0338 C.ar    1  UNL1        0.1060
      6 N         142.6419  142.2104  160.1472 N.ar    1  UNL1       -0.2134
      7 C         141.4448  141.6215  160.8328 C.ar    1  UNL1        0.2015
      8 N         141.1023  140.3342  160.1430 N.ar    1  UNL1       -0.2915
      9 C         142.0877  140.1277  159.0313 C.ar    1  UNL1        0.1370
     10 C         142.2416  139.0334  158.0168 C.ar    1  UNL1        0.2783
     11 O         141.2900  137.8739  158.0143 O.2     1  UNL1       -0.2653
     12 N         143.3470  139.0988  157.0050 N.ar    1  UNL1       -0.2923
     13 C         143.5008  138.0046  155.9905 C.3     1  UNL1        0.1336
     14 C         144.2985  140.2584  157.0075 C.ar    1  UNL1        0.0638
     15 C         145.4039  140.3237  155.9957 C.ar    1  UNL1        0.0155
     16 N         140.7177  142.2155  162.0027 N.pl3   1  UNL1       -0.2782
     17 C         141.1985  141.9493  163.3983 C.3     1  UNL1        0.0937
     18 C         140.4715  142.5433  164.5681 C.3     1  UNL1        0.0229
     19 C         139.2636  143.4035  164.3423 C.3     1  UNL1        0.0190
     20 C         138.7828  143.6697  162.9467 C.3     1  UNL1        0.0710
     21 N         137.5749  144.5300  162.7208 N.3     1  UNL1       -0.3208
     22 C         139.5098  143.0757  161.7768 C.3     1  UNL1        0.1089
     23 H         137.3358  144.5268  161.7293 H       1  UNL1        0.1189
     24 H         137.7767  145.4844  163.0188 H       1  UNL1        0.1189
     25 C         147.4608  141.5485  154.9864 C.3     1  UNL1        0.1687
     26 C         149.9859  141.8107  154.4340 C.3     1  UNL1        0.1746
     27 O         148.8889  141.6217  155.4394 O.3     1  UNL1       -0.3463
     28 C         139.9726  139.4150  160.5021 C.3     1  UNL1        0.1364
     29 C         139.9250  138.7801  161.8602 C.ar    1  UNL1        0.0111
     30 C         140.9909  137.8082  162.2715 C.ar    1  UNL1       -0.0016
     31 C         140.9433  137.1733  163.6297 C.ar    1  UNL1       -0.0002
     32 C         139.8298  137.5103  164.5765 C.ar    1  UNL1        0.0008
     33 C         138.7639  138.4822  164.1652 C.ar    1  UNL1        0.0111
     34 C         138.8115  139.1172  162.8071 C.ar    1  UNL1        0.0555
     35 CL        137.7456  140.0891  162.3958 Cl      1  UNL1       -0.0825
@<TRIPOS>BOND
     1    26    27    1
     2    27    25    1
     3    25     1    1
     4     1     2   ar
     5     2     3   ar
     6     3     4   ar
     7     4     5   ar
     8     5     6   ar
     9     6     7   ar
    10     7    16    1
    11    16    17    1
    12    17    18    1
    13    18    19    1
    14    19    20    1
    15    20    21    1
    16    20    22    1
    17     7     8   ar
    18     8    28    1
    19    28    29    1
    20    29    30   ar
    21    30    31   ar
    22    31    32   ar
    23    32    33   ar
    24    33    34   ar
    25    34    35    1
    26     8     9   ar
    27     9    10   ar
    28    10    11    2
    29    10    12   ar
    30    12    13    1
    31    12    14   ar
    32    14    15   ar
    33    15     1   ar
    34    14     4   ar
    35     9     5   ar
    36    22    16    1
    37    34    29   ar
    38    21    23    1
    39    21    24    1
@<TRIPOS>MOLECULE
*****
 35 39 0 0 0
SMALL
GASTEIGER

@<TRIPOS>ATOM
      1 C         140.3719  145.6536  156.7460 C.ar    1  UNL1        0.0087
      2 C         141.4522  145.7353  157.7834 C.ar    1  UNL1       -0.0017
      3 C         141.5340  144.6985  158.8643 C.ar    1  UNL1        0.0027
      4 C         140.5353  143.5801  158.9079 C.ar    1  UNL1        0.0352
      5 C         140.6171  142.5433  159.9888 C.ar    1  UNL1        0.1060
      6 N         141.5637  142.3645  161.1385 N.ar    1  UNL1       -0.2134
      7 C         141.1502  141.1356  161.8926 C.ar    1  UNL1        0.2015
      8 N         139.9479  140.5549  161.2090 N.ar    1  UNL1       -0.2915
      9 C         139.6184  141.4250  160.0324 C.ar    1  UNL1        0.1370
     10 C         138.5380  141.3433  158.9950 C.ar    1  UNL1        0.2783
     11 O         137.5394  140.2249  159.0386 O.2     1  UNL1       -0.2653
     12 N         138.4563  142.3801  157.9141 N.ar    1  UNL1       -0.2923
     13 C         137.3760  142.2985  156.8767 C.3     1  UNL1        0.1336
     14 C         139.4550  143.4985  157.8705 C.ar    1  UNL1        0.0638
     15 C         139.3733  144.5353  156.7896 C.ar    1  UNL1        0.0155
     16 N         141.8211  140.5841  163.1157 N.pl3   1  UNL1       -0.2782
     17 C         142.7288  139.3954  163.0016 C.3     1  UNL1        0.0937
     18 C         143.3997  138.8440  164.2246 C.3     1  UNL1        0.0229
     19 C         143.1629  139.4812  165.5617 C.3     1  UNL1        0.0190
     20 C         142.2552  140.6699  165.6758 C.3     1  UNL1        0.0710
     21 N         142.0184  141.3072  167.0129 N.3     1  UNL1       -0.3208
     22 C         141.5843  141.2213  164.4528 C.3     1  UNL1        0.1089
     23 H         141.3088  142.0343  166.9221 H       1  UNL1        0.1189
     24 H         142.8873  141.7205  167.3512 H       1  UNL1        0.1189
     25 C         140.2902  146.6904  155.6651 C.3     1  UNL1        0.1687
     26 C         139.3097  148.9502  154.8393 C.3     1  UNL1        0.1746
     27 O         139.2052  147.7256  155.6992 O.3     1  UNL1       -0.3463
     28 C         139.2055  139.3208  161.6284 C.3     1  UNL1        0.1364
     29 C         138.9873  139.0353  163.0846 C.ar    1  UNL1        0.0111
     30 C         139.5492  137.7863  163.6963 C.ar    1  UNL1       -0.0016
     31 C         139.3311  137.5006  165.1526 C.ar    1  UNL1       -0.0002
     32 C         138.5510  138.4640  165.9972 C.ar    1  UNL1        0.0008
     33 C         137.9890  139.7130  165.3855 C.ar    1  UNL1        0.0111
     34 C         138.2072  139.9987  163.9292 C.ar    1  UNL1        0.0555
     35 CL        137.6452  141.2477  163.3175 Cl      1  UNL1       -0.0825
@<TRIPOS>BOND
     1    26    27    1
     2    27    25    1
     3    25     1    1
     4     1     2   ar
     5     2     3   ar
     6     3     4   ar
     7     4     5   ar
     8     5     6   ar
     9     6     7   ar
    10     7    16    1
    11    16    17    1
    12    17    18    1
    13    18    19    1
    14    19    20    1
    15    20    21    1
    16    20    22    1
    17     7     8   ar
    18     8    28    1
    19    28    29    1
    20    29    30   ar
    21    30    31   ar
    22    31    32   ar
    23    32    33   ar
    24    33    34   ar
    25    34    35    1
    26     8     9   ar
    27     9    10   ar
    28    10    11    2
    29    10    12   ar
    30    12    13    1
    31    12    14   ar
    32    14    15   ar
    33    15     1   ar
    34    14     4   ar
    35     9     5   ar
    36    22    16    1
    37    34    29   ar
    38    21    23    1
    39    21    24    1
@<TRIPOS>MOLECULE
*****
 35 39 0 0 0
SMALL
GASTEIGER

@<TRIPOS>ATOM
      1 C         138.3098  138.8819  165.7813 C.ar    1  UNL1        0.0087
      2 C         138.9191  137.7106  165.0695 C.ar    1  UNL1       -0.0017
      3 C         139.2577  137.8122  163.6117 C.ar    1  UNL1        0.0027
      4 C         138.9870  139.0852  162.8658 C.ar    1  UNL1        0.0352
      5 C         139.3256  139.1868  161.4081 C.ar    1  UNL1        0.1060
      6 N         139.9297  138.2061  160.4473 N.ar    1  UNL1       -0.2134
      7 C         140.0324  138.8729  159.1076 C.ar    1  UNL1        0.2015
      8 N         139.4917  140.2657  159.2404 N.ar    1  UNL1       -0.2915
      9 C         139.0549  140.4597  160.6622 C.ar    1  UNL1        0.1370
     10 C         138.4456  141.6311  161.3741 C.ar    1  UNL1        0.2783
     11 O         138.1749  142.9040  160.6282 O.2     1  UNL1       -0.2653
     12 N         138.1070  141.5294  162.8318 N.ar    1  UNL1       -0.2923
     13 C         137.4977  142.7007  163.5437 C.3     1  UNL1        0.1336
     14 C         138.3777  140.2564  163.5777 C.ar    1  UNL1        0.0638
     15 C         138.0391  140.1548  165.0355 C.ar    1  UNL1        0.0155
     16 N         140.5797  138.2553  157.8549 N.pl3   1  UNL1       -0.2782
     17 C         139.6499  137.6220  156.8628 C.3     1  UNL1        0.0937
     18 C         140.1972  137.0045  155.6102 C.3     1  UNL1        0.0229
     19 C         141.6743  137.0202  155.3497 C.3     1  UNL1        0.0190
     20 C         142.6041  137.6535  156.3418 C.3     1  UNL1        0.0710
     21 N         144.0813  137.6692  156.0813 N.3     1  UNL1       -0.3208
     22 C         142.0568  138.2710  157.5944 C.3     1  UNL1        0.1089
     23 H         144.5658  138.0496  156.8943 H       1  UNL1        0.1189
     24 H         144.2766  138.2506  155.2663 H       1  UNL1        0.1189
     25 C         137.9712  138.7803  167.2391 C.3     1  UNL1        0.1687
     26 C         140.1617  139.9607  167.9860 C.3     1  UNL1        0.1746
     27 O         138.7299  139.5955  168.2439 O.3     1  UNL1       -0.3463
     28 C         139.4034  141.2855  158.1440 C.3     1  UNL1        0.1364
     29 C         140.4677  142.3335  158.0069 C.ar    1  UNL1        0.0111
     30 C         141.6055  142.3791  158.9832 C.ar    1  UNL1       -0.0016
     31 C         142.6699  143.4271  158.8462 C.ar    1  UNL1       -0.0002
     32 C         142.5965  144.4295  157.7327 C.ar    1  UNL1        0.0008
     33 C         141.4587  144.3839  156.7564 C.ar    1  UNL1        0.0111
     34 C         140.3943  143.3359  156.8934 C.ar    1  UNL1        0.0555
     35 CL        139.2565  143.2904  155.9170 Cl      1  UNL1       -0.0825
@<TRIPOS>BOND
     1    26    27    1
     2    27    25    1
     3    25     1    1
     4     1     2   ar
     5     2     3   ar
     6     3     4   ar
     7     4     5   ar
     8     5     6   ar
     9     6     7   ar
    10     7    16    1
    11    16    17    1
    12    17    18    1
    13    18    19    1
    14    19    20    1
    15    20    21    1
    16    20    22    1
    17     7     8   ar
    18     8    28    1
    19    28    29    1
    20    29    30   ar
    21    30    31   ar
    22    31    32   ar
    23    32    33   ar
    24    33    34   ar
    25    34    35    1
    26     8     9   ar
    27     9    10   ar
    28    10    11    2
    29    10    12   ar
    30    12    13    1
    31    12    14   ar
    32    14    15   ar
    33    15     1   ar
    34    14     4   ar
    35     9     5   ar
    36    22    16    1
    37    34    29   ar
    38    21    23    1
    39    21    24    1
@<TRIPOS>MOLECULE
*****
 35 39 0 0 0
SMALL
GASTEIGER

@<TRIPOS>ATOM
      1 C         145.0256  140.9516  156.5717 C.ar    1  UNL1        0.0087
      2 C         145.1675  142.0733  157.5573 C.ar    1  UNL1       -0.0017
      3 C         144.1771  142.2201  158.6743 C.ar    1  UNL1        0.0027
      4 C         143.0448  141.2451  158.8056 C.ar    1  UNL1        0.0352
      5 C         142.0545  141.3919  159.9226 C.ar    1  UNL1        0.1060
      6 N         141.9385  142.3897  161.0365 N.ar    1  UNL1       -0.2134
      7 C         140.7345  142.0314  161.8563 C.ar    1  UNL1        0.2015
      8 N         140.1064  140.8121  161.2490 N.ar    1  UNL1       -0.2915
      9 C         140.9222  140.4169  160.0539 C.ar    1  UNL1        0.1370
     10 C         140.7802  139.2951  159.0683 C.ar    1  UNL1        0.2783
     11 O         139.6480  138.3201  159.1996 O.2     1  UNL1       -0.2653
     12 N         141.7706  139.1483  157.9513 N.ar    1  UNL1       -0.2923
     13 C         141.6287  138.0266  156.9657 C.3     1  UNL1        0.1336
     14 C         142.9029  140.1234  157.8200 C.ar    1  UNL1        0.0638
     15 C         143.8933  139.9766  156.7030 C.ar    1  UNL1        0.0155
     16 N         140.2446  142.7638  163.0703 N.pl3   1  UNL1       -0.2782
     17 C         139.2357  143.8643  162.9259 C.3     1  UNL1        0.0937
     18 C         138.7459  144.5967  164.1399 C.3     1  UNL1        0.0229
     19 C         139.2650  144.2284  165.4982 C.3     1  UNL1        0.0190
     20 C         140.2739  143.1279  165.6425 C.3     1  UNL1        0.0710
     21 N         140.7929  142.7597  167.0008 N.3     1  UNL1       -0.3208
     22 C         140.7637  142.3956  164.4286 C.3     1  UNL1        0.1089
     23 H         141.5334  142.0648  166.9050 H       1  UNL1        0.1189
     24 H         140.0338  142.3725  167.5614 H       1  UNL1        0.1189
     25 C         146.0160  140.8048  155.4547 C.3     1  UNL1        0.1687
     26 C         148.3612  141.9073  155.6398 C.3     1  UNL1        0.1746
     27 O         146.9512  141.9313  155.1287 O.3     1  UNL1       -0.3463
     28 C         138.8782  140.1111  161.7490 C.3     1  UNL1        0.1364
     29 C         138.8497  139.5474  163.1387 C.ar    1  UNL1        0.0111
     30 C         138.0648  140.2400  164.2131 C.ar    1  UNL1       -0.0016
     31 C         138.0362  139.6764  165.6028 C.ar    1  UNL1       -0.0002
     32 C         138.7925  138.4200  165.9182 C.ar    1  UNL1        0.0008
     33 C         139.5774  137.7273  164.8439 C.ar    1  UNL1        0.0111
     34 C         139.6060  138.2910  163.4541 C.ar    1  UNL1        0.0555
     35 CL        140.3908  137.5983  162.3798 Cl      1  UNL1       -0.0825
@<TRIPOS>BOND
     1    26    27    1
     2    27    25    1
     3    25     1    1
     4     1     2   ar
     5     2     3   ar
     6     3     4   ar
     7     4     5   ar
     8     5     6   ar
     9     6     7   ar
    10     7    16    1
    11    16    17    1
    12    17    18    1
    13    18    19    1
    14    19    20    1
    15    20    21    1
    16    20    22    1
    17     7     8   ar
    18     8    28    1
    19    28    29    1
    20    29    30   ar
    21    30    31   ar
    22    31    32   ar
    23    32    33   ar
    24    33    34   ar
    25    34    35    1
    26     8     9   ar
    27     9    10   ar
    28    10    11    2
    29    10    12   ar
    30    12    13    1
    31    12    14   ar
    32    14    15   ar
    33    15     1   ar
    34    14     4   ar
    35     9     5   ar
    36    22    16    1
    37    34    29   ar
    38    21    23    1
    39    21    24    1
@<TRIPOS>MOLECULE
*****
 35 39 0 0 0
SMALL
GASTEIGER

@<TRIPOS>ATOM
      1 C         139.9650  140.9465  168.3647 C.ar    1  UNL1        0.0087
      2 C         140.5429  142.2276  167.8406 C.ar    1  UNL1       -0.0017
      3 C         140.6330  142.4599  166.3614 C.ar    1  UNL1        0.0027
      4 C         140.1452  141.4111  165.4064 C.ar    1  UNL1        0.0352
      5 C         140.2353  141.6435  163.9272 C.ar    1  UNL1        0.1060
      6 N         140.7529  142.7986  163.1224 N.ar    1  UNL1       -0.2134
      7 C         140.5849  142.4637  161.6699 C.ar    1  UNL1        0.2015
      8 N         139.9636  141.1016  161.5771 N.ar    1  UNL1       -0.2915
      9 C         139.7476  140.5947  162.9722 C.ar    1  UNL1        0.1370
     10 C         139.1696  139.3135  163.4963 C.ar    1  UNL1        0.2783
     11 O         138.6819  138.2647  162.5413 O.2     1  UNL1       -0.2653
     12 N         139.0795  139.0812  164.9755 N.ar    1  UNL1       -0.2923
     13 C         138.5017  137.8001  165.4996 C.3     1  UNL1        0.1336
     14 C         139.5674  140.1300  165.9305 C.ar    1  UNL1        0.0638
     15 C         139.4772  139.8977  167.4097 C.ar    1  UNL1        0.0155
     16 N         140.9706  143.3375  160.5133 N.pl3   1  UNL1       -0.2782
     17 C         140.1424  144.5411  160.1737 C.3     1  UNL1        0.0937
     18 C         140.5280  145.4149  159.0171 C.3     1  UNL1        0.0229
     19 C         141.7420  145.0850  158.2001 C.3     1  UNL1        0.0190
     20 C         142.5702  143.8814  158.5396 C.3     1  UNL1        0.0710
     21 N         143.7842  143.5516  157.7226 N.3     1  UNL1       -0.3208
     22 C         142.1845  143.0077  159.6962 C.3     1  UNL1        0.1089
     23 H         144.1685  142.6582  158.0301 H       1  UNL1        0.1189
     24 H         144.4847  144.2829  157.8440 H       1  UNL1        0.1189
     25 C         139.8749  140.7141  169.8439 C.3     1  UNL1        0.1687
     26 C         142.1407  139.4432  169.8110 C.3     1  UNL1        0.1746
     27 O         140.8864  139.8442  170.5294 O.3     1  UNL1       -0.3463
     28 C         139.6189  140.3741  160.3114 C.3     1  UNL1        0.1364
     29 C         140.6294  139.4739  159.6647 C.ar    1  UNL1        0.0111
     30 C         141.8387  139.0298  160.4331 C.ar    1  UNL1       -0.0016
     31 C         142.8493  138.1295  159.7865 C.ar    1  UNL1       -0.0002
     32 C         142.6506  137.6734  158.3714 C.ar    1  UNL1        0.0008
     33 C         141.4414  138.1175  157.6030 C.ar    1  UNL1        0.0111
     34 C         140.4307  139.0178  158.2496 C.ar    1  UNL1        0.0555
     35 CL        139.2215  139.4619  157.4812 Cl      1  UNL1       -0.0825
@<TRIPOS>BOND
     1    26    27    1
     2    27    25    1
     3    25     1    1
     4     1     2   ar
     5     2     3   ar
     6     3     4   ar
     7     4     5   ar
     8     5     6   ar
     9     6     7   ar
    10     7    16    1
    11    16    17    1
    12    17    18    1
    13    18    19    1
    14    19    20    1
    15    20    21    1
    16    20    22    1
    17     7     8   ar
    18     8    28    1
    19    28    29    1
    20    29    30   ar
    21    30    31   ar
    22    31    32   ar
    23    32    33   ar
    24    33    34   ar
    25    34    35    1
    26     8     9   ar
    27     9    10   ar
    28    10    11    2
    29    10    12   ar
    30    12    13    1
    31    12    14   ar
    32    14    15   ar
    33    15     1   ar
    34    14     4   ar
    35     9     5   ar
    36    22    16    1
    37    34    29   ar
    38    21    23    1
    39    21    24    1
@<TRIPOS>MOLECULE
*****
 35 39 0 0 0
SMALL
GASTEIGER

@<TRIPOS>ATOM
      1 C         140.6160  145.4079  156.3847 C.ar    1  UNL1        0.0087
      2 C         141.3325  145.9203  157.5987 C.ar    1  UNL1       -0.0017
      3 C         141.1713  145.2208  158.9158 C.ar    1  UNL1        0.0027
      4 C         140.2936  144.0088  159.0188 C.ar    1  UNL1        0.0352
      5 C         140.1324  143.3093  160.3359 C.ar    1  UNL1        0.1060
      6 N         140.7086  143.5811  161.6939 N.ar    1  UNL1       -0.2134
      7 C         140.1869  142.5371  162.6362 C.ar    1  UNL1        0.2015
      8 N         139.2884  141.6200  161.8606 N.ar    1  UNL1       -0.2915
      9 C         139.2547  142.0973  160.4389 C.ar    1  UNL1        0.1370
     10 C         138.5381  141.5848  159.2249 C.ar    1  UNL1        0.2783
     11 O         137.6604  140.3728  159.3279 O.2     1  UNL1       -0.2653
     12 N         138.6993  142.2843  157.9078 N.ar    1  UNL1       -0.2923
     13 C         137.9828  141.7718  156.6938 C.3     1  UNL1        0.1336
     14 C         139.5771  143.4964  157.8048 C.ar    1  UNL1        0.0638
     15 C         139.7383  144.1959  156.4877 C.ar    1  UNL1        0.0155
     16 N         140.5076  142.4291  164.0976 N.pl3   1  UNL1       -0.2782
     17 C         139.7119  143.2117  165.0998 C.3     1  UNL1        0.0937
     18 C         140.0326  143.1036  166.5611 C.3     1  UNL1        0.0229
     19 C         141.1488  142.2130  167.0202 C.3     1  UNL1        0.0190
     20 C         141.9445  141.4305  166.0180 C.3     1  UNL1        0.0710
     21 N         143.0607  140.5398  166.4770 N.3     1  UNL1       -0.3208
     22 C         141.6238  141.5385  164.5567 C.3     1  UNL1        0.1089
     23 H         143.5502  140.1624  165.6656 H       1  UNL1        0.1189
     24 H         142.6783  139.7731  167.0304 H       1  UNL1        0.1189
     25 C         140.7772  146.1074  155.0676 C.3     1  UNL1        0.1687
     26 C         138.9232  147.8416  155.6198 C.3     1  UNL1        0.1746
     27 O         140.1520  147.4536  154.8519 O.3     1  UNL1       -0.3463
     28 C         138.5527  140.4340  162.4101 C.3     1  UNL1        0.1364
     29 C         139.3102  139.3251  163.0783 C.ar    1  UNL1        0.0111
     30 C         140.2886  138.5047  162.2911 C.ar    1  UNL1       -0.0016
     31 C         141.0461  137.3958  162.9592 C.ar    1  UNL1       -0.0002
     32 C         140.8253  137.1073  164.4145 C.ar    1  UNL1        0.0008
     33 C         139.8469  137.9277  165.2017 C.ar    1  UNL1        0.0111
     34 C         139.0893  139.0366  164.5336 C.ar    1  UNL1        0.0555
     35 CL        138.1109  139.8570  165.3208 Cl      1  UNL1       -0.0825
@<TRIPOS>BOND
     1    26    27    1
     2    27    25    1
     3    25     1    1
     4     1     2   ar
     5     2     3   ar
     6     3     4   ar
     7     4     5   ar
     8     5     6   ar
     9     6     7   ar
    10     7    16    1
    11    16    17    1
    12    17    18    1
    13    18    19    1
    14    19    20    1
    15    20    21    1
    16    20    22    1
    17     7     8   ar
    18     8    28    1
    19    28    29    1
    20    29    30   ar
    21    30    31   ar
    22    31    32   ar
    23    32    33   ar
    24    33    34   ar
    25    34    35    1
    26     8     9   ar
    27     9    10   ar
    28    10    11    2
    29    10    12   ar
    30    12    13    1
    31    12    14   ar
    32    14    15   ar
    33    15     1   ar
    34    14     4   ar
    35     9     5   ar
    36    22    16    1
    37    34    29   ar
    38    21    23    1
    39    21    24    1
@<TRIPOS>MOLECULE
*****
 35 39 0 0 0
SMALL
GASTEIGER

@<TRIPOS>ATOM
      1 C         143.2312  138.2074  156.6891 C.ar    1  UNL1        0.0087
      2 C         142.6936  137.3138  157.7673 C.ar    1  UNL1       -0.0017
      3 C         142.3254  137.8882  159.1032 C.ar    1  UNL1        0.0027
      4 C         142.4948  139.3562  159.3608 C.ar    1  UNL1        0.0352
      5 C         142.1266  139.9305  160.6967 C.ar    1  UNL1        0.1060
      6 N         141.5769  139.3017  161.9426 N.ar    1  UNL1       -0.2134
      7 C         141.4065  140.3810  162.9703 C.ar    1  UNL1        0.2015
      8 N         141.8509  141.6769  162.3595 N.ar    1  UNL1       -0.2915
      9 C         142.2959  141.3985  160.9543 C.ar    1  UNL1        0.1370
     10 C         142.8335  142.2921  159.8761 C.ar    1  UNL1        0.2783
     11 O         143.0029  143.7601  160.1338 O.2     1  UNL1       -0.2653
     12 N         143.2017  141.7177  158.5403 N.ar    1  UNL1       -0.2923
     13 C         143.7393  142.6113  157.4621 C.3     1  UNL1        0.1336
     14 C         143.0323  140.2497  158.2826 C.ar    1  UNL1        0.0638
     15 C         143.4005  139.6753  156.9468 C.ar    1  UNL1        0.0155
     16 N         140.8836  140.1967  164.3641 N.pl3   1  UNL1       -0.2782
     17 C         139.4051  140.1259  164.6072 C.3     1  UNL1        0.0937
     18 C         138.8822  139.9417  166.0009 C.3     1  UNL1        0.0229
     19 C         139.8378  139.8282  167.1516 C.3     1  UNL1        0.0190
     20 C         141.3163  139.8990  166.9085 C.3     1  UNL1        0.0710
     21 N         142.2718  139.7855  168.0592 N.3     1  UNL1       -0.3208
     22 C         141.8391  140.0832  165.5147 C.3     1  UNL1        0.1089
     23 H         143.2229  139.9487  167.7287 H       1  UNL1        0.1189
     24 H         142.2079  138.8512  168.4633 H       1  UNL1        0.1189
     25 C         143.5994  137.6330  155.3533 C.3     1  UNL1        0.1687
     26 C         143.5664  135.0437  155.1421 C.3     1  UNL1        0.1746
     27 O         144.3323  136.3266  155.2748 O.3     1  UNL1       -0.3463
     28 C         141.8504  143.0161  163.0352 C.3     1  UNL1        0.1364
     29 C         140.5949  143.5348  163.6711 C.ar    1  UNL1        0.0111
     30 C         140.4969  143.6353  165.1645 C.ar    1  UNL1       -0.0016
     31 C         139.2414  144.1541  165.8005 C.ar    1  UNL1       -0.0002
     32 C         138.0839  144.5724  164.9431 C.ar    1  UNL1        0.0008
     33 C         138.1818  144.4719  163.4497 C.ar    1  UNL1        0.0111
     34 C         139.4374  143.9531  162.8137 C.ar    1  UNL1        0.0555
     35 CL        139.5353  143.8526  161.3203 Cl      1  UNL1       -0.0825
@<TRIPOS>BOND
     1    26    27    1
     2    27    25    1
     3    25     1    1
     4     1     2   ar
     5     2     3   ar
     6     3     4   ar
     7     4     5   ar
     8     5     6   ar
     9     6     7   ar
    10     7    16    1
    11    16    17    1
    12    17    18    1
    13    18    19    1
    14    19    20    1
    15    20    21    1
    16    20    22    1
    17     7     8   ar
    18     8    28    1
    19    28    29    1
    20    29    30   ar
    21    30    31   ar
    22    31    32   ar
    23    32    33   ar
    24    33    34   ar
    25    34    35    1
    26     8     9   ar
    27     9    10   ar
    28    10    11    2
    29    10    12   ar
    30    12    13    1
    31    12    14   ar
    32    14    15   ar
    33    15     1   ar
    34    14     4   ar
    35     9     5   ar
    36    22    16    1
    37    34    29   ar
    38    21    23    1
    39    21    24    1
