@<TRIPOS>MOLECULE
*****
 28 31 0 0 0
SMALL
GASTEIGER

@<TRIPOS>ATOM
      1 C         138.4942  137.6776  163.3146 C.3     1  UNL1        0.0420
      2 C         138.8566  138.7961  164.2461 C.3     1  UNL1        0.1909
      3 O         139.4143  140.0767  163.6992 O.3     1  UNL1       -0.3501
      4 C         139.7766  141.1952  164.6307 C.3     1  UNL1        0.1141
      5 C         140.1389  142.3137  165.5622 C.3     1  UNL1        0.0463
      6 C         140.6967  143.5943  165.0153 C.3     1  UNL1        0.0746
      7 N         140.8921  143.7563  163.5370 N.3     1  UNL1       -0.2722
      8 C         140.5298  142.6378  162.6055 C.3     1  UNL1        0.0746
      9 C         139.9721  141.3573  163.1524 C.3     1  UNL1        0.0463
     10 C         139.5812  141.0332  166.1091 C.3     1  UNL1        0.1209
     11 N         139.0234  139.7526  166.6560 N.am    1  UNL1       -0.2711
     12 C         138.6611  138.6341  165.7245 C.2     1  UNL1        0.2531
     13 O         138.1034  137.3535  166.2714 O.2     1  UNL1       -0.2722
     14 C         141.4499  145.0369  162.9901 C.3     1  UNL1        0.0768
     15 C         142.9342  145.2461  162.9366 C.3     1  UNL1        0.0437
     16 C         143.8625  144.0799  163.1051 C.ar    1  UNL1       -0.0208
     17 C         144.3213  143.6784  164.4756 C.ar    1  UNL1       -0.0042
     18 C         145.2496  142.5123  164.6440 C.ar    1  UNL1       -0.0003
     19 C         145.7191  141.7477  163.4420 C.ar    1  UNL1       -0.0000
     20 C         145.2604  142.1493  162.0715 C.ar    1  UNL1       -0.0003
     21 C         144.3321  143.3154  161.9031 C.ar    1  UNL1       -0.0042
     22 C         138.8280  139.5905  168.1343 C.3     1  UNL1        0.1203
     23 C         139.8076  140.2018  169.0918 C.ar    1  UNL1       -0.0023
     24 C         139.3970  141.3664  169.9434 C.ar    1  UNL1       -0.0026
     25 C         140.3766  141.9777  170.9009 C.ar    1  UNL1       -0.0003
     26 C         141.7667  141.4244  171.0067 C.ar    1  UNL1       -0.0000
     27 C         142.1774  140.2599  170.1551 C.ar    1  UNL1       -0.0003
     28 C         141.1978  139.6486  169.1976 C.ar    1  UNL1       -0.0026
@<TRIPOS>BOND
     1     1     2    1
     2     2     3    1
     3     3     4    1
     4     4     5    1
     5     5     6    1
     6     6     7    1
     7     7    14    1
     8    14    15    1
     9    15    16    1
    10    16    17   ar
    11    17    18   ar
    12    18    19   ar
    13    19    20   ar
    14    20    21   ar
    15     7     8    1
    16     8     9    1
    17     4    10    1
    18    10    11    1
    19    11    22    1
    20    22    23    1
    21    23    24   ar
    22    24    25   ar
    23    25    26   ar
    24    26    27   ar
    25    27    28   ar
    26    11    12   am
    27    12    13    2
    28    12     2    1
    29     9     4    1
    30    28    23   ar
    31    21    16   ar
@<TRIPOS>MOLECULE
*****
 28 31 0 0 0
SMALL
GASTEIGER

@<TRIPOS>ATOM
      1 C         138.5311  137.4769  162.7916 C.3     1  UNL1        0.0420
      2 C         138.6191  138.6536  163.7178 C.3     1  UNL1        0.1909
      3 O         138.6936  140.0437  163.1592 O.3     1  UNL1       -0.3501
      4 C         138.7816  141.2204  164.0854 C.3     1  UNL1        0.1141
      5 C         138.8696  142.3970  165.0116 C.3     1  UNL1        0.0463
      6 C         138.9441  143.7871  164.4530 C.3     1  UNL1        0.0746
      7 N         138.9306  144.0006  162.9684 N.3     1  UNL1       -0.2722
      8 C         138.8426  142.8240  162.0422 C.3     1  UNL1        0.0746
      9 C         138.7681  141.4339  162.6007 C.3     1  UNL1        0.0463
     10 C         138.7950  141.0069  165.5701 C.3     1  UNL1        0.1209
     11 N         138.7205  139.6167  166.1286 N.am    1  UNL1       -0.2711
     12 C         138.6325  138.4401  165.2024 C.2     1  UNL1        0.2531
     13 O         138.5580  137.0499  165.7609 O.2     1  UNL1       -0.2722
     14 C         139.0051  145.3909  162.4099 C.3     1  UNL1        0.0768
     15 C         140.3356  145.9873  162.0578 C.3     1  UNL1        0.0437
     16 C         141.5995  145.2519  162.3924 C.ar    1  UNL1       -0.0208
     17 C         142.2124  144.3194  161.3900 C.ar    1  UNL1       -0.0042
     18 C         143.4762  143.5841  161.7247 C.ar    1  UNL1       -0.0003
     19 C         144.1270  143.7811  163.0617 C.ar    1  UNL1       -0.0000
     20 C         143.5141  144.7136  164.0641 C.ar    1  UNL1       -0.0003
     21 C         142.2503  145.4490  163.7294 C.ar    1  UNL1       -0.0042
     22 C         138.7340  139.4032  167.6132 C.3     1  UNL1        0.1203
     23 C         139.8007  140.0411  168.4530 C.ar    1  UNL1       -0.0023
     24 C         139.4277  140.7873  169.6997 C.ar    1  UNL1       -0.0026
     25 C         140.4944  141.4251  170.5394 C.ar    1  UNL1       -0.0003
     26 C         141.9341  141.3168  170.1326 C.ar    1  UNL1       -0.0000
     27 C         142.3071  140.5706  168.8860 C.ar    1  UNL1       -0.0003
     28 C         141.2404  139.9327  168.0462 C.ar    1  UNL1       -0.0026
@<TRIPOS>BOND
     1     1     2    1
     2     2     3    1
     3     3     4    1
     4     4     5    1
     5     5     6    1
     6     6     7    1
     7     7    14    1
     8    14    15    1
     9    15    16    1
    10    16    17   ar
    11    17    18   ar
    12    18    19   ar
    13    19    20   ar
    14    20    21   ar
    15     7     8    1
    16     8     9    1
    17     4    10    1
    18    10    11    1
    19    11    22    1
    20    22    23    1
    21    23    24   ar
    22    24    25   ar
    23    25    26   ar
    24    26    27   ar
    25    27    28   ar
    26    11    12   am
    27    12    13    2
    28    12     2    1
    29     9     4    1
    30    28    23   ar
    31    21    16   ar
@<TRIPOS>MOLECULE
*****
 28 31 0 0 0
SMALL
GASTEIGER

@<TRIPOS>ATOM
      1 C         138.5931  137.4000  163.7136 C.3     1  UNL1        0.0420
      2 C         139.3568  138.3910  164.5412 C.3     1  UNL1        0.1909
      3 O         140.5294  139.1160  163.9503 O.3     1  UNL1       -0.3501
      4 C         141.2931  140.1070  164.7779 C.3     1  UNL1        0.1141
      5 C         142.0567  141.0979  165.6055 C.3     1  UNL1        0.0463
      6 C         143.2294  141.8229  165.0146 C.3     1  UNL1        0.0746
      7 N         143.6385  141.5569  163.5962 N.3     1  UNL1       -0.2722
      8 C         142.8749  140.5660  162.7686 C.3     1  UNL1        0.0746
      9 C         141.7022  139.8410  163.3595 C.3     1  UNL1        0.0463
     10 C         140.8840  140.3729  166.1963 C.3     1  UNL1        0.1209
     11 N         139.7112  139.6479  166.7871 N.am    1  UNL1       -0.2711
     12 C         138.9476  138.6569  165.9596 C.2     1  UNL1        0.2531
     13 O         137.7749  137.9319  166.5504 O.2     1  UNL1       -0.2722
     14 C         144.8112  142.2820  163.0054 C.3     1  UNL1        0.0768
     15 C         144.6165  143.6208  162.3576 C.3     1  UNL1        0.0437
     16 C         143.2593  144.2597  162.3494 C.ar    1  UNL1       -0.0208
     17 C         142.3603  144.0954  161.1600 C.ar    1  UNL1       -0.0042
     18 C         141.0032  144.7343  161.1518 C.ar    1  UNL1       -0.0003
     19 C         140.5452  145.5375  162.3329 C.ar    1  UNL1       -0.0000
     20 C         141.4443  145.7018  163.5223 C.ar    1  UNL1       -0.0003
     21 C         142.8014  145.0629  163.5305 C.ar    1  UNL1       -0.0042
     22 C         139.3021  139.9138  168.2056 C.3     1  UNL1        0.1203
     23 C         140.2260  140.6547  169.1263 C.ar    1  UNL1       -0.0023
     24 C         140.1467  142.1493  169.2252 C.ar    1  UNL1       -0.0026
     25 C         141.0705  142.8901  170.1458 C.ar    1  UNL1       -0.0003
     26 C         142.0737  142.1363  170.9676 C.ar    1  UNL1       -0.0000
     27 C         142.1531  140.6417  170.8687 C.ar    1  UNL1       -0.0003
     28 C         141.2292  139.9008  169.9480 C.ar    1  UNL1       -0.0026
@<TRIPOS>BOND
     1     1     2    1
     2     2     3    1
     3     3     4    1
     4     4     5    1
     5     5     6    1
     6     6     7    1
     7     7    14    1
     8    14    15    1
     9    15    16    1
    10    16    17   ar
    11    17    18   ar
    12    18    19   ar
    13    19    20   ar
    14    20    21   ar
    15     7     8    1
    16     8     9    1
    17     4    10    1
    18    10    11    1
    19    11    22    1
    20    22    23    1
    21    23    24   ar
    22    24    25   ar
    23    25    26   ar
    24    26    27   ar
    25    27    28   ar
    26    11    12   am
    27    12    13    2
    28    12     2    1
    29     9     4    1
    30    28    23   ar
    31    21    16   ar
@<TRIPOS>MOLECULE
*****
 28 31 0 0 0
SMALL
GASTEIGER

@<TRIPOS>ATOM
      1 C         141.0254  141.6421  170.6049 C.3     1  UNL1        0.0420
      2 C         140.9553  141.2912  169.1481 C.3     1  UNL1        0.1909
      3 O         141.9898  141.8191  168.1989 O.3     1  UNL1       -0.3501
      4 C         141.9197  141.4683  166.7422 C.3     1  UNL1        0.1141
      5 C         141.8496  141.1174  165.2855 C.3     1  UNL1        0.0463
      6 C         142.8841  141.6453  164.3363 C.3     1  UNL1        0.0746
      7 N         143.9887  142.5241  164.8437 N.3     1  UNL1       -0.2722
      8 C         144.0588  142.8750  166.3004 C.3     1  UNL1        0.0746
      9 C         143.0243  142.3471  167.2496 C.3     1  UNL1        0.0463
     10 C         140.8151  140.5895  166.2347 C.3     1  UNL1        0.1209
     11 N         139.7805  140.0616  167.1840 N.am    1  UNL1       -0.2711
     12 C         139.8506  140.4124  168.6407 C.2     1  UNL1        0.2531
     13 O         138.8161  139.8845  169.5900 O.2     1  UNL1       -0.2722
     14 C         145.0232  143.0521  163.8944 C.3     1  UNL1        0.0768
     15 C         144.6019  143.6749  162.5965 C.3     1  UNL1        0.0437
     16 C         143.2313  144.2688  162.4596 C.ar    1  UNL1       -0.0208
     17 C         142.4168  143.9997  161.2292 C.ar    1  UNL1       -0.0042
     18 C         141.0462  144.5936  161.0923 C.ar    1  UNL1       -0.0003
     19 C         140.4901  145.4566  162.1859 C.ar    1  UNL1       -0.0000
     20 C         141.3046  145.7257  163.4164 C.ar    1  UNL1       -0.0003
     21 C         142.6752  145.1318  163.5533 C.ar    1  UNL1       -0.0042
     22 C         138.6759  139.1828  166.6766 C.3     1  UNL1        0.1203
     23 C         138.5028  138.9719  165.2015 C.ar    1  UNL1       -0.0023
     24 C         138.8731  137.6562  164.5835 C.ar    1  UNL1       -0.0026
     25 C         138.7001  137.4453  163.1085 C.ar    1  UNL1       -0.0003
     26 C         138.1568  138.5500  162.2516 C.ar    1  UNL1       -0.0000
     27 C         137.7865  139.8657  162.8696 C.ar    1  UNL1       -0.0003
     28 C         137.9595  140.0766  164.3446 C.ar    1  UNL1       -0.0026
@<TRIPOS>BOND
     1     1     2    1
     2     2     3    1
     3     3     4    1
     4     4     5    1
     5     5     6    1
     6     6     7    1
     7     7    14    1
     8    14    15    1
     9    15    16    1
    10    16    17   ar
    11    17    18   ar
    12    18    19   ar
    13    19    20   ar
    14    20    21   ar
    15     7     8    1
    16     8     9    1
    17     4    10    1
    18    10    11    1
    19    11    22    1
    20    22    23    1
    21    23    24   ar
    22    24    25   ar
    23    25    26   ar
    24    26    27   ar
    25    27    28   ar
    26    11    12   am
    27    12    13    2
    28    12     2    1
    29     9     4    1
    30    28    23   ar
    31    21    16   ar
@<TRIPOS>MOLECULE
*****
 28 31 0 0 0
SMALL
GASTEIGER

@<TRIPOS>ATOM
      1 C         144.8297  142.7318  162.7158 C.3     1  UNL1        0.0420
      2 C         144.2126  141.3755  162.5433 C.3     1  UNL1        0.1909
      3 O         144.0393  140.7996  161.1692 O.3     1  UNL1       -0.3501
      4 C         143.4222  139.4433  160.9968 C.3     1  UNL1        0.1141
      5 C         142.8051  138.0870  160.8244 C.3     1  UNL1        0.0463
      6 C         142.6319  137.5111  159.4503 C.3     1  UNL1        0.0746
      7 N         143.0757  138.2914  158.2486 N.3     1  UNL1       -0.2722
      8 C         143.6928  139.6476  158.4209 C.3     1  UNL1        0.0746
      9 C         143.8661  140.2236  159.7950 C.3     1  UNL1        0.0463
     10 C         142.9784  138.6630  162.1985 C.3     1  UNL1        0.1209
     11 N         143.1516  139.2390  163.5727 N.am    1  UNL1       -0.2711
     12 C         143.7687  140.5952  163.7450 C.2     1  UNL1        0.2531
     13 O         143.9420  141.1713  165.1192 O.2     1  UNL1       -0.2722
     14 C         142.9024  137.7153  156.8744 C.3     1  UNL1        0.0768
     15 C         142.0152  136.5239  156.6670 C.3     1  UNL1        0.0437
     16 C         142.6173  135.1846  156.3606 C.ar    1  UNL1       -0.0208
     17 C         143.4926  134.5065  157.3725 C.ar    1  UNL1       -0.0042
     18 C         144.0947  133.1673  157.0660 C.ar    1  UNL1       -0.0003
     19 C         143.8214  132.5062  155.7476 C.ar    1  UNL1       -0.0000
     20 C         142.9461  133.1842  154.7357 C.ar    1  UNL1       -0.0003
     21 C         142.3440  134.5234  155.0422 C.ar    1  UNL1       -0.0042
     22 C         142.7078  138.4587  164.7744 C.3     1  UNL1        0.1203
     23 C         141.2834  138.5404  165.2375 C.ar    1  UNL1       -0.0023
     24 C         140.8772  139.5865  166.2328 C.ar    1  UNL1       -0.0026
     25 C         139.4528  139.6683  166.6959 C.ar    1  UNL1       -0.0003
     26 C         138.4347  138.7039  166.1637 C.ar    1  UNL1       -0.0000
     27 C         138.8409  137.6578  165.1684 C.ar    1  UNL1       -0.0003
     28 C         140.2652  137.5761  164.7053 C.ar    1  UNL1       -0.0026
@<TRIPOS>BOND
     1     1     2    1
     2     2     3    1
     3     3     4    1
     4     4     5    1
     5     5     6    1
     6     6     7    1
     7     7    14    1
     8    14    15    1
     9    15    16    1
    10    16    17   ar
    11    17    18   ar
    12    18    19   ar
    13    19    20   ar
    14    20    21   ar
    15     7     8    1
    16     8     9    1
    17     4    10    1
    18    10    11    1
    19    11    22    1
    20    22    23    1
    21    23    24   ar
    22    24    25   ar
    23    25    26   ar
    24    26    27   ar
    25    27    28   ar
    26    11    12   am
    27    12    13    2
    28    12     2    1
    29     9     4    1
    30    28    23   ar
    31    21    16   ar
@<TRIPOS>MOLECULE
*****
 28 31 0 0 0
SMALL
GASTEIGER

@<TRIPOS>ATOM
      1 C         143.9281  138.1157  161.2144 C.3     1  UNL1        0.0420
      2 C         143.0580  138.8659  162.1789 C.3     1  UNL1        0.1909
      3 O         143.2325  138.6693  163.6556 O.3     1  UNL1       -0.3501
      4 C         142.3624  139.4196  164.6201 C.3     1  UNL1        0.1141
      5 C         141.4923  140.1698  165.5845 C.3     1  UNL1        0.0463
      6 C         141.6669  139.9732  167.0613 C.3     1  UNL1        0.0746
      7 N         142.7114  139.0265  167.5736 N.3     1  UNL1       -0.2722
      8 C         143.5815  138.2763  166.6092 C.3     1  UNL1        0.0746
      9 C         143.4070  138.4728  165.1325 C.3     1  UNL1        0.0463
     10 C         141.3178  140.3663  164.1078 C.3     1  UNL1        0.1209
     11 N         141.1433  140.5629  162.6309 N.am    1  UNL1       -0.2711
     12 C         142.0134  139.8126  161.6665 C.2     1  UNL1        0.2531
     13 O         141.8389  140.0092  160.1897 O.2     1  UNL1       -0.2722
     14 C         142.8859  138.8299  169.0505 C.3     1  UNL1        0.0768
     15 C         141.8526  139.3526  170.0039 C.3     1  UNL1        0.0437
     16 C         141.5714  140.8244  170.0723 C.ar    1  UNL1       -0.0208
     17 C         140.1550  141.3162  170.1149 C.ar    1  UNL1       -0.0042
     18 C         139.8739  142.7880  170.1833 C.ar    1  UNL1       -0.0003
     19 C         141.0091  143.7680  170.2091 C.ar    1  UNL1       -0.0000
     20 C         142.4256  143.2763  170.1665 C.ar    1  UNL1       -0.0003
     21 C         142.7067  141.8045  170.0981 C.ar    1  UNL1       -0.0042
     22 C         140.0988  141.5096  162.1186 C.3     1  UNL1        0.1203
     23 C         139.5421  142.5715  163.0200 C.ar    1  UNL1       -0.0023
     24 C         138.1372  142.4587  163.5334 C.ar    1  UNL1       -0.0026
     25 C         137.5806  143.5205  164.4348 C.ar    1  UNL1       -0.0003
     26 C         138.4288  144.6952  164.8228 C.ar    1  UNL1       -0.0000
     27 C         139.8337  144.8081  164.3094 C.ar    1  UNL1       -0.0003
     28 C         140.3903  143.7462  163.4080 C.ar    1  UNL1       -0.0026
@<TRIPOS>BOND
     1     1     2    1
     2     2     3    1
     3     3     4    1
     4     4     5    1
     5     5     6    1
     6     6     7    1
     7     7    14    1
     8    14    15    1
     9    15    16    1
    10    16    17   ar
    11    17    18   ar
    12    18    19   ar
    13    19    20   ar
    14    20    21   ar
    15     7     8    1
    16     8     9    1
    17     4    10    1
    18    10    11    1
    19    11    22    1
    20    22    23    1
    21    23    24   ar
    22    24    25   ar
    23    25    26   ar
    24    26    27   ar
    25    27    28   ar
    26    11    12   am
    27    12    13    2
    28    12     2    1
    29     9     4    1
    30    28    23   ar
    31    21    16   ar
@<TRIPOS>MOLECULE
*****
 28 31 0 0 0
SMALL
GASTEIGER

@<TRIPOS>ATOM
      1 C         143.6339  138.2679  166.2329 C.3     1  UNL1        0.0420
      2 C         142.6129  138.6330  165.1963 C.3     1  UNL1        0.1909
      3 O         142.8911  138.3731  163.7454 O.3     1  UNL1       -0.3501
      4 C         141.8701  138.7383  162.7088 C.3     1  UNL1        0.1141
      5 C         140.8492  139.1034  161.6724 C.3     1  UNL1        0.0463
      6 C         141.1274  138.8435  160.2215 C.3     1  UNL1        0.0746
      7 N         142.4265  138.2185  159.8071 N.3     1  UNL1       -0.2722
      8 C         143.4474  137.8533  160.8436 C.3     1  UNL1        0.0746
      9 C         143.1692  138.1132  162.2945 C.3     1  UNL1        0.0463
     10 C         140.5711  139.3633  163.1232 C.3     1  UNL1        0.1209
     11 N         140.2929  139.6232  164.5742 N.am    1  UNL1       -0.2711
     12 C         141.3138  139.2581  165.6106 C.2     1  UNL1        0.2531
     13 O         141.0357  139.5180  167.0616 O.2     1  UNL1       -0.2722
     14 C         142.7046  137.9586  158.3562 C.3     1  UNL1        0.0768
     15 C         141.6309  137.3893  157.4770 C.3     1  UNL1        0.0437
     16 C         141.9767  136.3611  156.4409 C.ar    1  UNL1       -0.0208
     17 C         141.1890  136.2861  155.1666 C.ar    1  UNL1       -0.0042
     18 C         141.5348  135.2580  154.1306 C.ar    1  UNL1       -0.0003
     19 C         142.6684  134.3050  154.3688 C.ar    1  UNL1       -0.0000
     20 C         143.4561  134.3800  155.6431 C.ar    1  UNL1       -0.0003
     21 C         143.1103  135.4081  156.6791 C.ar    1  UNL1       -0.0042
     22 C         138.9938  140.2483  164.9885 C.3     1  UNL1        0.1203
     23 C         138.8500  141.7414  165.0002 C.ar    1  UNL1       -0.0023
     24 C         137.7702  142.3972  164.1915 C.ar    1  UNL1       -0.0026
     25 C         137.6263  143.8902  164.2032 C.ar    1  UNL1       -0.0003
     26 C         138.5622  144.7274  165.0236 C.ar    1  UNL1       -0.0000
     27 C         139.6420  144.0716  165.8323 C.ar    1  UNL1       -0.0003
     28 C         139.7859  142.5786  165.8207 C.ar    1  UNL1       -0.0026
@<TRIPOS>BOND
     1     1     2    1
     2     2     3    1
     3     3     4    1
     4     4     5    1
     5     5     6    1
     6     6     7    1
     7     7    14    1
     8    14    15    1
     9    15    16    1
    10    16    17   ar
    11    17    18   ar
    12    18    19   ar
    13    19    20   ar
    14    20    21   ar
    15     7     8    1
    16     8     9    1
    17     4    10    1
    18    10    11    1
    19    11    22    1
    20    22    23    1
    21    23    24   ar
    22    24    25   ar
    23    25    26   ar
    24    26    27   ar
    25    27    28   ar
    26    11    12   am
    27    12    13    2
    28    12     2    1
    29     9     4    1
    30    28    23   ar
    31    21    16   ar
@<TRIPOS>MOLECULE
*****
 28 31 0 0 0
SMALL
GASTEIGER

@<TRIPOS>ATOM
      1 C         139.0349  139.9457  157.4572 C.3     1  UNL1        0.0420
      2 C         140.2694  139.2355  157.9283 C.3     1  UNL1        0.1909
      3 O         140.7113  139.3663  159.3557 O.3     1  UNL1       -0.3501
      4 C         141.9458  138.6562  159.8268 C.3     1  UNL1        0.1141
      5 C         143.1802  137.9461  160.2978 C.3     1  UNL1        0.0463
      6 C         143.6221  138.0769  161.7252 C.3     1  UNL1        0.0746
      7 N         142.8296  138.9178  162.6816 N.3     1  UNL1       -0.2722
      8 C         141.5951  139.6279  162.2106 C.3     1  UNL1        0.0746
      9 C         141.1532  139.4971  160.7832 C.3     1  UNL1        0.0463
     10 C         142.7383  137.8152  158.8704 C.3     1  UNL1        0.1209
     11 N         142.2964  137.6845  157.4429 N.am    1  UNL1       -0.2711
     12 C         141.0619  138.3946  156.9719 C.2     1  UNL1        0.2531
     13 O         140.6200  138.2638  155.5444 O.2     1  UNL1       -0.2722
     14 C         143.2715  139.0486  164.1091 C.3     1  UNL1        0.0768
     15 C         142.5875  138.2540  165.1818 C.3     1  UNL1        0.0437
     16 C         141.1454  138.5136  165.5033 C.ar    1  UNL1       -0.0208
     17 C         140.7690  139.6713  166.3797 C.ar    1  UNL1       -0.0042
     18 C         139.3271  139.9308  166.7011 C.ar    1  UNL1       -0.0003
     19 C         138.2615  139.0326  166.1462 C.ar    1  UNL1       -0.0000
     20 C         138.6379  137.8749  165.2698 C.ar    1  UNL1       -0.0003
     21 C         140.0799  137.6154  164.9484 C.ar    1  UNL1       -0.0042
     22 C         143.0889  136.8435  156.4865 C.3     1  UNL1        0.1203
     23 C         142.7886  135.3804  156.3478 C.ar    1  UNL1       -0.0023
     24 C         143.4965  134.3838  157.2171 C.ar    1  UNL1       -0.0026
     25 C         143.1963  132.9208  157.0785 C.ar    1  UNL1       -0.0003
     26 C         142.1881  132.4543  156.0706 C.ar    1  UNL1       -0.0000
     27 C         141.4801  133.4508  155.2014 C.ar    1  UNL1       -0.0003
     28 C         141.7804  134.9139  155.3400 C.ar    1  UNL1       -0.0026
@<TRIPOS>BOND
     1     1     2    1
     2     2     3    1
     3     3     4    1
     4     4     5    1
     5     5     6    1
     6     6     7    1
     7     7    14    1
     8    14    15    1
     9    15    16    1
    10    16    17   ar
    11    17    18   ar
    12    18    19   ar
    13    19    20   ar
    14    20    21   ar
    15     7     8    1
    16     8     9    1
    17     4    10    1
    18    10    11    1
    19    11    22    1
    20    22    23    1
    21    23    24   ar
    22    24    25   ar
    23    25    26   ar
    24    26    27   ar
    25    27    28   ar
    26    11    12   am
    27    12    13    2
    28    12     2    1
    29     9     4    1
    30    28    23   ar
    31    21    16   ar
@<TRIPOS>MOLECULE
*****
 28 31 0 0 0
SMALL
GASTEIGER

@<TRIPOS>ATOM
      1 C         144.8458  140.8847  156.5489 C.3     1  UNL1        0.0420
      2 C         144.0636  139.8872  157.3510 C.3     1  UNL1        0.1909
      3 O         144.0861  139.9469  158.8496 O.3     1  UNL1       -0.3501
      4 C         143.3039  138.9495  159.6518 C.3     1  UNL1        0.1141
      5 C         142.5217  137.9521  160.4539 C.3     1  UNL1        0.0463
      6 C         142.5442  138.0117  161.9525 C.3     1  UNL1        0.0746
      7 N         143.3489  139.0688  162.6490 N.3     1  UNL1       -0.2722
      8 C         144.1310  140.0662  161.8470 C.3     1  UNL1        0.0746
      9 C         144.1086  140.0065  160.3483 C.3     1  UNL1        0.0463
     10 C         142.4993  137.8924  158.9553 C.3     1  UNL1        0.1209
     11 N         142.4768  137.8328  157.4566 N.am    1  UNL1       -0.2711
     12 C         143.2590  138.8302  156.6545 C.2     1  UNL1        0.2531
     13 O         143.2365  138.7706  155.1558 O.2     1  UNL1       -0.2722
     14 C         143.3713  139.1284  164.1477 C.3     1  UNL1        0.0768
     15 C         142.5750  138.1422  164.9496 C.3     1  UNL1        0.0437
     16 C         141.1678  138.4674  165.3551 C.ar    1  UNL1       -0.0208
     17 C         140.9061  139.5724  166.3351 C.ar    1  UNL1       -0.0042
     18 C         139.4990  139.8975  166.7405 C.ar    1  UNL1       -0.0003
     19 C         138.3537  139.1176  166.1660 C.ar    1  UNL1       -0.0000
     20 C         138.6155  138.0126  165.1860 C.ar    1  UNL1       -0.0003
     21 C         140.0225  137.6875  164.7806 C.ar    1  UNL1       -0.0042
     22 C         141.6722  136.7757  156.7600 C.3     1  UNL1        0.1203
     23 C         142.3242  135.4917  156.3402 C.ar    1  UNL1       -0.0023
     24 C         142.0051  134.8905  155.0036 C.ar    1  UNL1       -0.0026
     25 C         142.6571  133.6065  154.5838 C.ar    1  UNL1       -0.0003
     26 C         143.6283  132.9238  155.5006 C.ar    1  UNL1       -0.0000
     27 C         143.9474  133.5250  156.8373 C.ar    1  UNL1       -0.0003
     28 C         143.2954  134.8090  157.2571 C.ar    1  UNL1       -0.0026
@<TRIPOS>BOND
     1     1     2    1
     2     2     3    1
     3     3     4    1
     4     4     5    1
     5     5     6    1
     6     6     7    1
     7     7    14    1
     8    14    15    1
     9    15    16    1
    10    16    17   ar
    11    17    18   ar
    12    18    19   ar
    13    19    20   ar
    14    20    21   ar
    15     7     8    1
    16     8     9    1
    17     4    10    1
    18    10    11    1
    19    11    22    1
    20    22    23    1
    21    23    24   ar
    22    24    25   ar
    23    25    26   ar
    24    26    27   ar
    25    27    28   ar
    26    11    12   am
    27    12    13    2
    28    12     2    1
    29     9     4    1
    30    28    23   ar
    31    21    16   ar
