@<TRIPOS>MOLECULE
*****
 30 33 0 0 0
SMALL
GASTEIGER

@<TRIPOS>ATOM
      1 N         141.5971  141.6009  166.0612 N.ar    1  UNL1       -0.3169
      2 C         142.8484  142.3054  166.4947 C.ar    1  UNL1        0.0779
      3 C         142.9861  142.1346  167.9786 C.ar    1  UNL1        0.0394
      4 C         141.8199  141.3246  168.4622 C.ar    1  UNL1        0.1041
      5 N         141.4287  140.8447  169.8284 N.ar    1  UNL1       -0.2124
      6 C         140.1791  140.0350  170.0097 C.ar    1  UNL1        0.2149
      7 N         139.7879  139.5552  171.3760 N.pl3   1  UNL1       -0.3274
      8 N         139.3206  139.7052  168.8247 N.ar    1  UNL1       -0.1977
      9 C         139.7118  140.1851  167.4584 C.ar    1  UNL1        0.1491
     10 C         140.9614  140.9948  167.2772 C.ar    1  UNL1        0.1101
     11 H         140.3514  139.7716  172.1538 H       1  UNL1        0.1452
     12 H         138.9678  139.0238  171.4950 H       1  UNL1        0.1452
     13 N         138.8533  139.8553  166.2734 N.pl3   1  UNL1       -0.3119
     14 H         138.3253  140.5619  165.8362 H       1  UNL1        0.1486
     15 C         138.7993  138.4489  165.7546 C.3     1  UNL1        0.1383
     16 C         139.3090  138.1369  164.3788 C.ar    1  UNL1        0.1201
     17 C         138.7237  138.6303  163.0888 C.ar    1  UNL1        0.0553
     18 C         139.5464  138.0752  161.9641 C.ar    1  UNL1        0.1546
     19 C         139.3159  138.3144  160.5014 C.3     1  UNL1        0.0754
     20 O         140.6402  137.2387  162.5590 O.2     1  UNL1       -0.3580
     21 N         140.4936  137.2768  164.0513 N.ar    1  UNL1       -0.0800
     22 C         141.0733  141.5173  164.6581 C.3     1  UNL1        0.1521
     23 C         138.2935  143.2144  162.3903 C.ar    1  UNL1        0.2247
     24 C         137.7801  144.2756  163.3178 C.ar    1  UNL1        0.0577
     25 C         138.3643  144.4174  164.6920 C.ar    1  UNL1        0.0061
     26 C         139.4621  143.4979  165.1387 C.ar    1  UNL1        0.0169
     27 C         139.9756  142.4367  164.2113 C.ar    1  UNL1        0.0849
     28 N         139.3913  142.2950  162.8370 N.ar    1  UNL1       -0.2141
     29 C         138.4666  142.3355  159.9515 C.3     1  UNL1        0.2542
     30 O         137.7093  143.0726  161.0161 O.3     1  UNL1       -0.4561
@<TRIPOS>BOND
     1    29    30    1
     2    30    23    1
     3    23    24   ar
     4    24    25   ar
     5    25    26   ar
     6    26    27   ar
     7    27    22    1
     8    22     1    1
     9     1     2   ar
    10     2     3   ar
    11     3     4   ar
    12     4     5   ar
    13     5     6   ar
    14     6     7    1
    15     6     8   ar
    16     8     9   ar
    17     9    13    1
    18    13    15    1
    19    15    16    1
    20    16    17   ar
    21    17    18   ar
    22    18    19    1
    23    18    20   ar
    24    20    21   ar
    25     9    10   ar
    26    27    28   ar
    27    28    23   ar
    28    10     1   ar
    29    10     4   ar
    30    21    16   ar
    31     7    11    1
    32     7    12    1
    33    13    14    1
@<TRIPOS>MOLECULE
*****
 30 33 0 0 0
SMALL
GASTEIGER

@<TRIPOS>ATOM
      1 N         140.0469  140.3466  167.8290 N.ar    1  UNL1       -0.3169
      2 C         138.9994  140.0037  168.8465 C.ar    1  UNL1        0.0779
      3 C         139.3486  140.7052  170.1255 C.ar    1  UNL1        0.0394
      4 C         140.6118  141.4816  169.8986 C.ar    1  UNL1        0.1041
      5 N         141.4247  142.3617  170.8010 N.ar    1  UNL1       -0.2124
      6 C         142.6694  143.0203  170.2840 C.ar    1  UNL1        0.2149
      7 N         143.4824  143.9004  171.1864 N.pl3   1  UNL1       -0.3274
      8 N         143.1010  142.7987  168.8647 N.ar    1  UNL1       -0.1977
      9 C         142.2880  141.9185  167.9623 C.ar    1  UNL1        0.1491
     10 C         141.0434  141.2600  168.4792 C.ar    1  UNL1        0.1101
     11 H         143.1991  144.0459  172.1180 H       1  UNL1        0.1452
     12 H         144.2993  144.3327  170.8472 H       1  UNL1        0.1452
     13 N         142.7196  141.6968  166.5429 N.pl3   1  UNL1       -0.3119
     14 H         142.3507  140.9430  166.0282 H       1  UNL1        0.1486
     15 C         143.7134  142.6238  165.9078 C.3     1  UNL1        0.1383
     16 C         143.3108  143.4630  164.7315 C.ar    1  UNL1        0.1201
     17 C         141.9093  143.8508  164.3634 C.ar    1  UNL1        0.0553
     18 C         141.9714  144.6893  163.1212 C.ar    1  UNL1        0.1546
     19 C         140.7995  145.2916  162.4045 C.3     1  UNL1        0.0754
     20 O         143.4113  144.8197  162.7215 O.2     1  UNL1       -0.3580
     21 N         144.2392  144.0619  163.7167 N.ar    1  UNL1       -0.0800
     22 C         140.0903  139.8613  166.4103 C.3     1  UNL1        0.1521
     23 C         138.0939  142.6361  164.3941 C.ar    1  UNL1        0.2247
     24 C         137.5088  141.8141  163.2842 C.ar    1  UNL1        0.0577
     25 C         137.7841  140.3411  163.2163 C.ar    1  UNL1        0.0061
     26 C         138.6447  139.6902  164.2584 C.ar    1  UNL1        0.0169
     27 C         139.2298  140.5122  165.3683 C.ar    1  UNL1        0.0849
     28 N         138.9544  141.9852  165.4361 N.ar    1  UNL1       -0.2141
     29 C         138.5671  144.9677  165.4379 C.3     1  UNL1        0.2542
     30 O         137.8186  144.1090  164.4620 O.3     1  UNL1       -0.4561
@<TRIPOS>BOND
     1    29    30    1
     2    30    23    1
     3    23    24   ar
     4    24    25   ar
     5    25    26   ar
     6    26    27   ar
     7    27    22    1
     8    22     1    1
     9     1     2   ar
    10     2     3   ar
    11     3     4   ar
    12     4     5   ar
    13     5     6   ar
    14     6     7    1
    15     6     8   ar
    16     8     9   ar
    17     9    13    1
    18    13    15    1
    19    15    16    1
    20    16    17   ar
    21    17    18   ar
    22    18    19    1
    23    18    20   ar
    24    20    21   ar
    25     9    10   ar
    26    27    28   ar
    27    28    23   ar
    28    10     1   ar
    29    10     4   ar
    30    21    16   ar
    31     7    11    1
    32     7    12    1
    33    13    14    1
@<TRIPOS>MOLECULE
*****
 30 33 0 0 0
SMALL
GASTEIGER

@<TRIPOS>ATOM
      1 N         142.5725  141.7470  167.8518 N.ar    1  UNL1       -0.3169
      2 C         143.2718  142.3617  169.0279 C.ar    1  UNL1        0.0779
      3 C         142.4180  142.1421  170.2414 C.ar    1  UNL1        0.0394
      4 C         141.1911  141.3917  169.8154 C.ar    1  UNL1        0.1041
      5 N         139.9993  140.8991  170.5815 N.ar    1  UNL1       -0.2124
      6 C         138.9029  140.1624  169.8707 C.ar    1  UNL1        0.2149
      7 N         137.7110  139.6699  170.6368 N.pl3   1  UNL1       -0.3274
      8 N         138.9983  139.9182  168.3938 N.ar    1  UNL1       -0.1977
      9 C         140.1902  140.4108  167.6277 C.ar    1  UNL1        0.1491
     10 C         141.2866  141.1475  168.3385 C.ar    1  UNL1        0.1101
     11 H         137.6484  139.8302  171.6062 H       1  UNL1        0.1452
     12 H         136.9915  139.1864  170.1703 H       1  UNL1        0.1452
     13 N         140.2857  140.1666  166.1508 N.pl3   1  UNL1       -0.3119
     14 H         140.5402  140.9005  165.5460 H       1  UNL1        0.1486
     15 C         139.9935  138.8041  165.5955 C.3     1  UNL1        0.1383
     16 C         140.6885  138.3365  164.3512 C.ar    1  UNL1        0.1201
     17 C         142.0896  138.6816  163.9412 C.ar    1  UNL1        0.0553
     18 C         142.3716  138.0001  162.6351 C.ar    1  UNL1        0.1546
     19 C         143.6549  138.0721  161.8620 C.3     1  UNL1        0.0754
     20 O         141.1448  137.2338  162.2378 O.2     1  UNL1       -0.3580
     21 N         140.1046  137.4417  163.2983 N.ar    1  UNL1       -0.0800
     22 C         143.0715  141.7341  166.4373 C.3     1  UNL1        0.1521
     23 C         141.0845  144.4591  164.3454 C.ar    1  UNL1        0.2247
     24 C         142.2172  145.2163  163.7179 C.ar    1  UNL1        0.0577
     25 C         143.6347  144.8127  163.9969 C.ar    1  UNL1        0.0061
     26 C         143.9194  143.6519  164.9034 C.ar    1  UNL1        0.0169
     27 C         142.7867  142.8948  165.5309 C.ar    1  UNL1        0.0849
     28 N         141.3692  143.2984  165.2518 N.ar    1  UNL1       -0.2141
     29 C         138.5802  144.5031  165.0357 C.3     1  UNL1        0.2542
     30 O         139.6670  144.8626  164.0664 O.3     1  UNL1       -0.4561
@<TRIPOS>BOND
     1    29    30    1
     2    30    23    1
     3    23    24   ar
     4    24    25   ar
     5    25    26   ar
     6    26    27   ar
     7    27    22    1
     8    22     1    1
     9     1     2   ar
    10     2     3   ar
    11     3     4   ar
    12     4     5   ar
    13     5     6   ar
    14     6     7    1
    15     6     8   ar
    16     8     9   ar
    17     9    13    1
    18    13    15    1
    19    15    16    1
    20    16    17   ar
    21    17    18   ar
    22    18    19    1
    23    18    20   ar
    24    20    21   ar
    25     9    10   ar
    26    27    28   ar
    27    28    23   ar
    28    10     1   ar
    29    10     4   ar
    30    21    16   ar
    31     7    11    1
    32     7    12    1
    33    13    14    1
@<TRIPOS>MOLECULE
*****
 30 33 0 0 0
SMALL
GASTEIGER

@<TRIPOS>ATOM
      1 N         138.6822  142.7331  163.6079 N.ar    1  UNL1       -0.3169
      2 C         138.0374  143.7639  164.4863 C.ar    1  UNL1        0.0779
      3 C         139.0180  144.8813  164.6863 C.ar    1  UNL1        0.0394
      4 C         140.2688  144.5411  163.9315 C.ar    1  UNL1        0.1041
      5 N         141.5699  145.2686  163.7649 N.ar    1  UNL1       -0.2124
      6 C         142.6635  144.6685  162.9319 C.ar    1  UNL1        0.2149
      7 N         143.9646  145.3961  162.7653 N.pl3   1  UNL1       -0.3274
      8 N         142.4560  143.3408  162.2654 N.ar    1  UNL1       -0.1977
      9 C         141.1549  142.6132  162.4320 C.ar    1  UNL1        0.1491
     10 C         140.0613  143.2133  163.2650 C.ar    1  UNL1        0.1101
     11 H         144.1008  146.2675  163.2028 H       1  UNL1        0.1452
     12 H         144.6824  145.0023  162.2186 H       1  UNL1        0.1452
     13 N         140.9474  141.2855  161.7656 N.pl3   1  UNL1       -0.3119
     14 H         140.0467  141.0176  161.4718 H       1  UNL1        0.1486
     15 C         142.1122  140.3660  161.5468 C.3     1  UNL1        0.1383
     16 C         142.9488  139.9253  162.7111 C.ar    1  UNL1        0.1201
     17 C         142.4489  139.2316  163.9436 C.ar    1  UNL1        0.0553
     18 C         143.6234  138.9784  164.8417 C.ar    1  UNL1        0.1546
     19 C         143.5798  138.3061  166.1818 C.3     1  UNL1        0.0754
     20 O         144.8492  139.5156  164.1643 O.2     1  UNL1       -0.3580
     21 N         144.4323  140.1008  162.8475 N.ar    1  UNL1       -0.0800
     22 C         138.0577  141.4476  163.1524 C.3     1  UNL1        0.1521
     23 C         138.4421  138.9285  166.1949 C.ar    1  UNL1        0.2247
     24 C         138.7670  137.6561  165.4701 C.ar    1  UNL1        0.0577
     25 C         138.8554  137.6475  163.9728 C.ar    1  UNL1        0.0061
     26 C         138.6190  138.9114  163.2002 C.ar    1  UNL1        0.0169
     27 C         138.2941  140.1838  163.9250 C.ar    1  UNL1        0.0849
     28 N         138.2056  140.1924  165.4224 N.ar    1  UNL1       -0.2141
     29 C         139.1821  139.9026  168.4870 C.3     1  UNL1        0.2542
     30 O         138.3536  138.9372  167.6923 O.3     1  UNL1       -0.4561
@<TRIPOS>BOND
     1    29    30    1
     2    30    23    1
     3    23    24   ar
     4    24    25   ar
     5    25    26   ar
     6    26    27   ar
     7    27    22    1
     8    22     1    1
     9     1     2   ar
    10     2     3   ar
    11     3     4   ar
    12     4     5   ar
    13     5     6   ar
    14     6     7    1
    15     6     8   ar
    16     8     9   ar
    17     9    13    1
    18    13    15    1
    19    15    16    1
    20    16    17   ar
    21    17    18   ar
    22    18    19    1
    23    18    20   ar
    24    20    21   ar
    25     9    10   ar
    26    27    28   ar
    27    28    23   ar
    28    10     1   ar
    29    10     4   ar
    30    21    16   ar
    31     7    11    1
    32     7    12    1
    33    13    14    1
@<TRIPOS>MOLECULE
*****
 30 33 0 0 0
SMALL
GASTEIGER

@<TRIPOS>ATOM
      1 N         140.2024  140.3058  167.5211 N.ar    1  UNL1       -0.3169
      2 C         139.1114  139.9237  168.4771 C.ar    1  UNL1        0.0779
      3 C         139.3904  140.5929  169.7902 C.ar    1  UNL1        0.0394
      4 C         140.6538  141.3885  169.6458 C.ar    1  UNL1        0.1041
      5 N         141.4121  142.2517  170.6101 N.ar    1  UNL1       -0.2124
      6 C         142.6722  142.9374  170.1721 C.ar    1  UNL1        0.2149
      7 N         143.4305  143.8006  171.1364 N.pl3   1  UNL1       -0.3274
      8 N         143.1740  142.7600  168.7697 N.ar    1  UNL1       -0.1977
      9 C         142.4157  141.8968  167.8054 C.ar    1  UNL1        0.1491
     10 C         141.1556  141.2111  168.2434 C.ar    1  UNL1        0.1101
     11 H         143.1011  143.9171  172.0568 H       1  UNL1        0.1452
     12 H         144.2575  144.2507  170.8489 H       1  UNL1        0.1452
     13 N         142.9175  141.7193  166.4030 N.pl3   1  UNL1       -0.3119
     14 H         142.6653  140.9194  165.8874 H       1  UNL1        0.1486
     15 C         143.8036  142.7607  165.7861 C.3     1  UNL1        0.1383
     16 C         143.3188  143.5577  164.6114 C.ar    1  UNL1        0.1201
     17 C         141.9069  144.0034  164.3706 C.ar    1  UNL1        0.0553
     18 C         141.8763  144.7700  163.0817 C.ar    1  UNL1        0.1546
     19 C         140.6654  145.3983  162.4581 C.3     1  UNL1        0.0754
     20 O         143.2692  144.7982  162.5259 O.2     1  UNL1       -0.3580
     21 N         144.1608  144.0489  163.4713 N.ar    1  UNL1       -0.0800
     22 C         140.3195  139.8607  166.0935 C.3     1  UNL1        0.1521
     23 C         138.0047  140.0754  162.8770 C.ar    1  UNL1        0.2247
     24 C         137.4882  141.4789  162.9926 C.ar    1  UNL1        0.0577
     25 C         137.9155  142.3430  164.1418 C.ar    1  UNL1        0.0061
     26 C         138.8593  141.8035  165.1755 C.ar    1  UNL1        0.0169
     27 C         139.3758  140.4000  165.0599 C.ar    1  UNL1        0.0849
     28 N         138.9485  139.5359  163.9106 N.ar    1  UNL1       -0.2141
     29 C         137.4974  139.7875  160.3453 C.3     1  UNL1        0.2542
     30 O         137.5775  139.2112  161.7278 O.3     1  UNL1       -0.4561
@<TRIPOS>BOND
     1    29    30    1
     2    30    23    1
     3    23    24   ar
     4    24    25   ar
     5    25    26   ar
     6    26    27   ar
     7    27    22    1
     8    22     1    1
     9     1     2   ar
    10     2     3   ar
    11     3     4   ar
    12     4     5   ar
    13     5     6   ar
    14     6     7    1
    15     6     8   ar
    16     8     9   ar
    17     9    13    1
    18    13    15    1
    19    15    16    1
    20    16    17   ar
    21    17    18   ar
    22    18    19    1
    23    18    20   ar
    24    20    21   ar
    25     9    10   ar
    26    27    28   ar
    27    28    23   ar
    28    10     1   ar
    29    10     4   ar
    30    21    16   ar
    31     7    11    1
    32     7    12    1
    33    13    14    1
@<TRIPOS>MOLECULE
*****
 30 33 0 0 0
SMALL
GASTEIGER

@<TRIPOS>ATOM
      1 N         142.5042  138.2966  164.8737 N.ar    1  UNL1       -0.3169
      2 C         141.3177  137.3898  164.7336 C.ar    1  UNL1        0.0779
      3 C         141.0750  137.1669  163.2702 C.ar    1  UNL1        0.0394
      4 C         142.1116  137.9360  162.5060 C.ar    1  UNL1        0.1041
      5 N         142.3652  138.0907  161.0357 N.ar    1  UNL1       -0.2124
      6 C         143.5022  138.9438  160.5565 C.ar    1  UNL1        0.2149
      7 N         143.7559  139.0985  159.0862 N.pl3   1  UNL1       -0.3274
      8 N         144.3856  139.6420  161.5476 N.ar    1  UNL1       -0.1977
      9 C         144.1318  139.4872  163.0179 C.ar    1  UNL1        0.1491
     10 C         142.9949  138.6342  163.4971 C.ar    1  UNL1        0.1101
     11 H         143.1761  138.6402  158.4358 H       1  UNL1        0.1452
     12 H         144.5021  139.6584  158.7717 H       1  UNL1        0.1452
     13 N         145.0152  140.1854  164.0089 N.pl3   1  UNL1       -0.3119
     14 H         145.1944  139.7731  164.8848 H       1  UNL1        0.1486
     15 C         145.6254  141.5120  163.6656 C.3     1  UNL1        0.1383
     16 C         144.7480  142.6578  163.2564 C.ar    1  UNL1        0.1201
     17 C         143.8060  143.4096  164.1493 C.ar    1  UNL1        0.0553
     18 C         143.1343  144.4693  163.3272 C.ar    1  UNL1        0.1546
     19 C         142.1148  145.4531  163.8196 C.3     1  UNL1        0.0754
     20 O         143.6613  144.3725  161.9261 O.2     1  UNL1       -0.3580
     21 N         144.6586  143.2529  161.8823 N.ar    1  UNL1       -0.0800
     22 C         143.0962  138.7809  166.1641 C.3     1  UNL1        0.1521
     23 C         141.1682  142.1973  166.7649 C.ar    1  UNL1        0.2247
     24 C         141.3308  142.3577  168.2474 C.ar    1  UNL1        0.0577
     25 C         142.0819  141.3259  169.0355 C.ar    1  UNL1        0.0061
     26 C         142.6703  140.1336  168.3410 C.ar    1  UNL1        0.0169
     27 C         142.5077  139.9732  166.8585 C.ar    1  UNL1        0.0849
     28 N         141.7566  141.0051  166.0704 N.ar    1  UNL1       -0.2141
     29 C         139.6505  142.8261  164.7521 C.3     1  UNL1        0.2542
     30 O         140.4171  143.2292  165.9767 O.3     1  UNL1       -0.4561
@<TRIPOS>BOND
     1    29    30    1
     2    30    23    1
     3    23    24   ar
     4    24    25   ar
     5    25    26   ar
     6    26    27   ar
     7    27    22    1
     8    22     1    1
     9     1     2   ar
    10     2     3   ar
    11     3     4   ar
    12     4     5   ar
    13     5     6   ar
    14     6     7    1
    15     6     8   ar
    16     8     9   ar
    17     9    13    1
    18    13    15    1
    19    15    16    1
    20    16    17   ar
    21    17    18   ar
    22    18    19    1
    23    18    20   ar
    24    20    21   ar
    25     9    10   ar
    26    27    28   ar
    27    28    23   ar
    28    10     1   ar
    29    10     4   ar
    30    21    16   ar
    31     7    11    1
    32     7    12    1
    33    13    14    1
@<TRIPOS>MOLECULE
*****
 30 33 0 0 0
SMALL
GASTEIGER

@<TRIPOS>ATOM
      1 N         142.4642  142.5177  165.1441 N.ar    1  UNL1       -0.3169
      2 C         143.7685  143.1838  165.4682 C.ar    1  UNL1        0.0779
      3 C         144.8442  142.5101  164.6688 C.ar    1  UNL1        0.0394
      4 C         144.2046  141.4276  163.8507 C.ar    1  UNL1        0.1041
      5 N         144.7717  140.4383  162.8762 N.ar    1  UNL1       -0.2124
      6 C         143.8677  139.4536  162.1954 C.ar    1  UNL1        0.2149
      7 N         144.4348  138.4643  161.2209 N.pl3   1  UNL1       -0.3274
      8 N         142.3968  139.4583  162.4892 N.ar    1  UNL1       -0.1977
      9 C         141.8298  140.4477  163.4637 C.ar    1  UNL1        0.1491
     10 C         142.7337  141.4323  164.1445 C.ar    1  UNL1        0.1101
     11 H         145.4002  138.4612  161.0281 H       1  UNL1        0.1452
     12 H         143.8415  137.8181  160.7741 H       1  UNL1        0.1452
     13 N         140.3588  140.4524  163.7575 N.pl3   1  UNL1       -0.3119
     14 H         140.0313  140.1512  164.6357 H       1  UNL1        0.1486
     15 C         139.3869  140.9161  162.7131 C.3     1  UNL1        0.1383
     16 C         139.0602  142.3746  162.5875 C.ar    1  UNL1        0.1201
     17 C         140.0243  143.4664  162.2286 C.ar    1  UNL1        0.0553
     18 C         139.2720  144.7641  162.2179 C.ar    1  UNL1        0.1546
     19 C         139.8475  146.1143  161.9092 C.3     1  UNL1        0.0754
     20 O         137.8430  144.4744  162.5702 O.2     1  UNL1       -0.3580
     21 N         137.7121  142.9976  162.7986 N.ar    1  UNL1       -0.0800
     22 C         141.1253  142.8743  165.7188 C.3     1  UNL1        0.1521
     23 C         139.2649  140.2010  167.9865 C.ar    1  UNL1        0.2247
     24 C         139.5911  140.7157  169.3571 C.ar    1  UNL1        0.0577
     25 C         140.4288  141.9499  169.5150 C.ar    1  UNL1        0.0061
     26 C         140.9402  142.6695  168.3022 C.ar    1  UNL1        0.0169
     27 C         140.6139  142.1548  166.9315 C.ar    1  UNL1        0.0849
     28 N         139.7762  140.9205  166.7737 N.ar    1  UNL1       -0.2141
     29 C         137.9630  138.5446  166.4661 C.3     1  UNL1        0.2542
     30 O         138.4272  138.9667  167.8285 O.3     1  UNL1       -0.4561
@<TRIPOS>BOND
     1    29    30    1
     2    30    23    1
     3    23    24   ar
     4    24    25   ar
     5    25    26   ar
     6    26    27   ar
     7    27    22    1
     8    22     1    1
     9     1     2   ar
    10     2     3   ar
    11     3     4   ar
    12     4     5   ar
    13     5     6   ar
    14     6     7    1
    15     6     8   ar
    16     8     9   ar
    17     9    13    1
    18    13    15    1
    19    15    16    1
    20    16    17   ar
    21    17    18   ar
    22    18    19    1
    23    18    20   ar
    24    20    21   ar
    25     9    10   ar
    26    27    28   ar
    27    28    23   ar
    28    10     1   ar
    29    10     4   ar
    30    21    16   ar
    31     7    11    1
    32     7    12    1
    33    13    14    1
@<TRIPOS>MOLECULE
*****
 30 33 0 0 0
SMALL
GASTEIGER

@<TRIPOS>ATOM
      1 N         140.5193  142.3516  166.5188 N.ar    1  UNL1       -0.3169
      2 C         140.9877  142.5157  167.9343 C.ar    1  UNL1        0.0779
      3 C         140.4001  141.4017  168.7489 C.ar    1  UNL1        0.0394
      4 C         139.5686  140.5491  167.8370 C.ar    1  UNL1        0.1041
      5 N         138.7539  139.3141  168.0836 N.ar    1  UNL1       -0.2124
      6 C         138.0128  138.6661  166.9518 C.ar    1  UNL1        0.2149
      7 N         137.1981  137.4310  167.1984 N.pl3   1  UNL1       -0.3274
      8 N         138.0864  139.2532  165.5734 N.ar    1  UNL1       -0.1977
      9 C         138.9012  140.4883  165.3269 C.ar    1  UNL1        0.1491
     10 C         139.6422  141.1362  166.4586 C.ar    1  UNL1        0.1101
     11 H         137.1498  137.0457  168.1030 H       1  UNL1        0.1452
     12 H         136.7117  137.0057  166.4555 H       1  UNL1        0.1452
     13 N         138.9748  141.0754  163.9485 N.pl3   1  UNL1       -0.3119
     14 H         139.6585  140.7592  163.3146 H       1  UNL1        0.1486
     15 C         138.0067  142.1444  163.5359 C.3     1  UNL1        0.1383
     16 C         138.4899  143.3367  162.7647 C.ar    1  UNL1        0.1201
     17 C         139.6921  143.3792  161.8687 C.ar    1  UNL1        0.0553
     18 C         139.8009  144.7647  161.3043 C.ar    1  UNL1        0.1546
     19 C         140.8589  145.2510  160.3587 C.3     1  UNL1        0.0754
     20 O         138.6659  145.5786  161.8515 O.2     1  UNL1       -0.3580
     21 N         137.8556  144.6961  162.7541 N.ar    1  UNL1       -0.0800
     22 C         140.8669  143.2460  165.3658 C.3     1  UNL1        0.1521
     23 C         144.0076  141.4465  163.7385 C.ar    1  UNL1        0.2247
     24 C         144.7059  142.6131  163.1049 C.ar    1  UNL1        0.0577
     25 C         144.1245  143.9906  163.2248 C.ar    1  UNL1        0.0061
     26 C         142.8448  144.2015  163.9785 C.ar    1  UNL1        0.0169
     27 C         142.1465  143.0350  164.6122 C.ar    1  UNL1        0.0849
     28 N         142.7280  141.6574  164.4922 N.ar    1  UNL1       -0.2141
     29 C         144.5714  139.1422  164.7979 C.3     1  UNL1        0.2542
     30 O         144.5890  140.0690  163.6186 O.3     1  UNL1       -0.4561
@<TRIPOS>BOND
     1    29    30    1
     2    30    23    1
     3    23    24   ar
     4    24    25   ar
     5    25    26   ar
     6    26    27   ar
     7    27    22    1
     8    22     1    1
     9     1     2   ar
    10     2     3   ar
    11     3     4   ar
    12     4     5   ar
    13     5     6   ar
    14     6     7    1
    15     6     8   ar
    16     8     9   ar
    17     9    13    1
    18    13    15    1
    19    15    16    1
    20    16    17   ar
    21    17    18   ar
    22    18    19    1
    23    18    20   ar
    24    20    21   ar
    25     9    10   ar
    26    27    28   ar
    27    28    23   ar
    28    10     1   ar
    29    10     4   ar
    30    21    16   ar
    31     7    11    1
    32     7    12    1
    33    13    14    1
@<TRIPOS>MOLECULE
*****
 30 33 0 0 0
SMALL
GASTEIGER

@<TRIPOS>ATOM
      1 N         142.3198  140.9712  168.0684 N.ar    1  UNL1       -0.3169
      2 C         143.1085  141.4503  169.2509 C.ar    1  UNL1        0.0779
      3 C         142.2475  141.3079  170.4709 C.ar    1  UNL1        0.0394
      4 C         140.9266  140.7407  170.0424 C.ar    1  UNL1        0.1041
      5 N         139.6890  140.3869  170.8124 N.ar    1  UNL1       -0.2124
      6 C         138.4959  139.8249  170.0977 C.ar    1  UNL1        0.2149
      7 N         137.2583  139.4710  170.8677 N.pl3   1  UNL1       -0.3274
      8 N         138.5406  139.6168  168.6128 N.ar    1  UNL1       -0.1977
      9 C         139.7783  139.9707  167.8428 C.ar    1  UNL1        0.1491
     10 C         140.9713  140.5326  168.5576 C.ar    1  UNL1        0.1101
     11 H         137.2290  139.6076  171.8422 H       1  UNL1        0.1452
     12 H         136.4753  139.1022  170.3986 H       1  UNL1        0.1452
     13 N         139.8229  139.7626  166.3580 N.pl3   1  UNL1       -0.3119
     14 H         140.4200  140.3131  165.8015 H       1  UNL1        0.1486
     15 C         138.9578  138.7156  165.7210 C.3     1  UNL1        0.1383
     16 C         138.7457  138.7198  164.2361 C.ar    1  UNL1        0.1201
     17 C         138.2539  139.8776  163.4190 C.ar    1  UNL1        0.0553
     18 C         138.1923  139.4403  161.9854 C.ar    1  UNL1        0.1546
     19 C         137.7539  140.2830  160.8246 C.3     1  UNL1        0.0754
     20 O         138.6461  138.0122  161.9166 O.2     1  UNL1       -0.3580
     21 N         138.9881  137.5669  163.3076 N.ar    1  UNL1       -0.0800
     22 C         142.7959  140.9367  166.6464 C.3     1  UNL1        0.1521
     23 C         141.1410  143.8358  164.5001 C.ar    1  UNL1        0.2247
     24 C         142.3600  144.5781  164.0386 C.ar    1  UNL1        0.0577
     25 C         143.7244  144.1066  164.4464 C.ar    1  UNL1        0.0061
     26 C         143.8696  142.8927  165.3157 C.ar    1  UNL1        0.0169
     27 C         142.6505  142.1504  165.7771 C.ar    1  UNL1        0.0849
     28 N         141.2862  142.6220  165.3693 N.ar    1  UNL1       -0.2141
     29 C         138.8274  144.8394  165.1246 C.3     1  UNL1        0.2542
     30 O         139.7766  144.3073  164.0923 O.3     1  UNL1       -0.4561
@<TRIPOS>BOND
     1    29    30    1
     2    30    23    1
     3    23    24   ar
     4    24    25   ar
     5    25    26   ar
     6    26    27   ar
     7    27    22    1
     8    22     1    1
     9     1     2   ar
    10     2     3   ar
    11     3     4   ar
    12     4     5   ar
    13     5     6   ar
    14     6     7    1
    15     6     8   ar
    16     8     9   ar
    17     9    13    1
    18    13    15    1
    19    15    16    1
    20    16    17   ar
    21    17    18   ar
    22    18    19    1
    23    18    20   ar
    24    20    21   ar
    25     9    10   ar
    26    27    28   ar
    27    28    23   ar
    28    10     1   ar
    29    10     4   ar
    30    21    16   ar
    31     7    11    1
    32     7    12    1
    33    13    14    1
