@<TRIPOS>MOLECULE
*****
 32 34 0 0 0
SMALL
GASTEIGER

@<TRIPOS>ATOM
      1 C         141.8176  140.0813  165.6502 C.3     1  UNL1        0.1752
      2 C         142.9388  141.0105  165.2902 C.ar    1  UNL1        0.0111
      3 C         143.3518  142.3445  165.8377 C.ar    1  UNL1        0.0276
      4 C         144.5428  143.0540  165.2649 C.ar    1  UNL1        0.1399
      5 F         144.9559  144.3881  165.8124 F       1  UNL1       -0.2042
      6 C         145.3208  142.4295  164.1448 C.ar    1  UNL1        0.0298
      7 C         144.9078  141.0955  163.5973 C.ar    1  UNL1        0.0066
      8 C         143.7168  140.3860  164.1700 C.ar    1  UNL1        0.0518
      9 C         143.0764  139.0709  163.8377 C.2     1  UNL1        0.2493
     10 O         143.5301  138.1124  162.7769 O.2     1  UNL1       -0.2699
     11 N         141.9026  138.8825  164.7525 N.am    1  UNL1       -0.2658
     12 N         141.0738  139.8909  168.1323 N.am    1  UNL1       -0.3004
     13 C         140.7915  140.3106  166.7200 C.2     1  UNL1        0.2450
     14 O         139.4833  140.9596  166.3778 O.2     1  UNL1       -0.2729
     15 H         141.9324  139.4649  168.3569 H       1  UNL1        0.1496
     16 C         140.0477  140.1202  169.2021 C.3     1  UNL1        0.1217
     17 C         140.4755  140.2677  170.6322 C.3     1  UNL1        0.1634
     18 O         140.2335  141.5579  171.3581 O.3     1  UNL1       -0.3493
     19 C         139.8590  142.7913  170.5909 C.3     1  UNL1        0.1742
     20 C         140.9260  143.6308  169.9532 C.3     1  UNL1        0.1742
     21 C         143.2962  142.5687  169.8918 C.3     1  UNL1        0.1742
     22 O         142.3349  143.5680  170.4640 O.3     1  UNL1       -0.3484
     23 C         140.9765  137.7027  164.7671 C.3     1  UNL1        0.0987
     24 C         139.5190  137.8895  164.4662 C.3     1  UNL1        0.0422
     25 C         138.4865  137.4817  165.4751 C.3     1  UNL1        0.0065
     26 C         139.0938  138.4841  163.1564 C.ar    1  UNL1       -0.0208
     27 C         138.1723  139.6676  163.1339 C.ar    1  UNL1       -0.0034
     28 C         137.7471  140.2622  161.8240 C.ar    1  UNL1        0.0111
     29 C         138.2434  139.6734  160.5367 C.ar    1  UNL1        0.0577
     30 CL        137.8182  140.2680  159.2269 Cl      1  UNL1       -0.0822
     31 C         139.1648  138.4900  160.5593 C.ar    1  UNL1        0.0111
     32 C         139.5900  137.8954  161.8691 C.ar    1  UNL1       -0.0034
@<TRIPOS>BOND
     1    21    22    1
     2    22    20    1
     3    20    19    1
     4    19    18    1
     5    18    17    1
     6    17    16    1
     7    16    12    1
     8    12    13   am
     9    13    14    2
    10    13     1    1
    11     1     2    1
    12     2     3   ar
    13     3     4   ar
    14     4     5    1
    15     4     6   ar
    16     6     7   ar
    17     7     8   ar
    18     8     9    1
    19     9    10    2
    20     9    11   am
    21    11    23    1
    22    23    24    1
    23    24    25    1
    24    24    26    1
    25    26    27   ar
    26    27    28   ar
    27    28    29   ar
    28    29    30    1
    29    29    31   ar
    30    31    32   ar
    31    11     1    1
    32    32    26   ar
    33     8     2   ar
    34    12    15    1
@<TRIPOS>MOLECULE
*****
 32 34 0 0 0
SMALL
GASTEIGER

@<TRIPOS>ATOM
      1 C         141.7797  140.5020  166.2050 C.3     1  UNL1        0.1752
      2 C         140.5773  139.6104  166.1086 C.ar    1  UNL1        0.0111
      3 C         139.2987  139.5615  166.8913 C.ar    1  UNL1        0.0276
      4 C         138.2553  138.5361  166.5600 C.ar    1  UNL1        0.1399
      5 F         136.9766  138.4872  167.3427 F       1  UNL1       -0.2042
      6 C         138.4904  137.5597  165.4459 C.ar    1  UNL1        0.0298
      7 C         139.7691  137.6085  164.6631 C.ar    1  UNL1        0.0066
      8 C         140.8125  138.6339  164.9945 C.ar    1  UNL1        0.0518
      9 C         142.1602  138.9220  164.4024 C.2     1  UNL1        0.2493
     10 O         142.7982  138.1850  163.2623 O.2     1  UNL1       -0.2699
     11 N         142.7580  140.0766  165.1505 N.am    1  UNL1       -0.2658
     12 N         143.0124  141.5113  168.2573 N.am    1  UNL1       -0.3004
     13 C         141.9703  141.6223  167.1840 C.2     1  UNL1        0.2450
     14 O         141.1190  142.8537  167.0898 O.2     1  UNL1       -0.2729
     15 H         143.5712  140.7031  168.3192 H       1  UNL1        0.1496
     16 C         143.2030  142.6316  169.2364 C.3     1  UNL1        0.1217
     17 C         142.4827  142.6086  170.5519 C.3     1  UNL1        0.1634
     18 O         141.0025  142.8468  170.6007 O.3     1  UNL1       -0.3493
     19 C         140.0519  141.7040  170.3997 C.3     1  UNL1        0.1742
     20 C         140.4673  140.3097  170.7652 C.3     1  UNL1        0.1742
     21 C         142.4750  138.7670  170.1835 C.3     1  UNL1        0.1742
     22 O         141.2120  139.4650  169.7744 O.3     1  UNL1       -0.3484
     23 C         144.0987  140.6968  164.8899 C.3     1  UNL1        0.0987
     24 C         144.2433  141.7561  163.8378 C.3     1  UNL1        0.0422
     25 C         145.5275  141.8834  163.0731 C.3     1  UNL1        0.0065
     26 C         143.1037  142.6881  163.5503 C.ar    1  UNL1       -0.0208
     27 C         143.0458  144.0303  164.2178 C.ar    1  UNL1       -0.0034
     28 C         141.9062  144.9623  163.9303 C.ar    1  UNL1        0.0111
     29 C         140.8245  144.5522  162.9754 C.ar    1  UNL1        0.0577
     30 CL        139.6849  145.4842  162.6879 Cl      1  UNL1       -0.0822
     31 C         140.8824  143.2102  162.3080 C.ar    1  UNL1        0.0111
     32 C         142.0220  142.2781  162.5954 C.ar    1  UNL1       -0.0034
@<TRIPOS>BOND
     1    21    22    1
     2    22    20    1
     3    20    19    1
     4    19    18    1
     5    18    17    1
     6    17    16    1
     7    16    12    1
     8    12    13   am
     9    13    14    2
    10    13     1    1
    11     1     2    1
    12     2     3   ar
    13     3     4   ar
    14     4     5    1
    15     4     6   ar
    16     6     7   ar
    17     7     8   ar
    18     8     9    1
    19     9    10    2
    20     9    11   am
    21    11    23    1
    22    23    24    1
    23    24    25    1
    24    24    26    1
    25    26    27   ar
    26    27    28   ar
    27    28    29   ar
    28    29    30    1
    29    29    31   ar
    30    31    32   ar
    31    11     1    1
    32    32    26   ar
    33     8     2   ar
    34    12    15    1
@<TRIPOS>MOLECULE
*****
 32 34 0 0 0
SMALL
GASTEIGER

@<TRIPOS>ATOM
      1 C         141.5677  139.4013  166.5099 C.3     1  UNL1        0.1752
      2 C         141.2795  140.0619  167.8254 C.ar    1  UNL1        0.0111
      3 C         142.1726  140.7193  168.8354 C.ar    1  UNL1        0.0276
      4 C         141.5869  141.3052  170.0858 C.ar    1  UNL1        0.1399
      5 F         142.4800  141.9626  171.0959 F       1  UNL1       -0.2042
      6 C         140.1080  141.2337  170.3263 C.ar    1  UNL1        0.0298
      7 C         139.2149  140.5763  169.3163 C.ar    1  UNL1        0.0066
      8 C         139.8006  139.9904  168.0659 C.ar    1  UNL1        0.0518
      9 C         139.1749  139.2856  166.8990 C.2     1  UNL1        0.2493
     10 O         137.7135  138.9958  166.7244 O.2     1  UNL1       -0.2699
     11 N         140.2670  138.9215  165.9373 N.am    1  UNL1       -0.2658
     12 N         143.4283  140.2942  164.9316 N.am    1  UNL1       -0.3004
     13 C         142.9194  139.2475  165.8780 C.2     1  UNL1        0.2450
     14 O         143.7621  138.0472  166.1923 O.2     1  UNL1       -0.2729
     15 H         142.8752  141.0821  164.7252 H       1  UNL1        0.1496
     16 C         144.7800  140.1404  164.2996 C.3     1  UNL1        0.1217
     17 C         145.5566  141.3549  163.8852 C.3     1  UNL1        0.1634
     18 O         145.6039  141.7581  162.4412 O.3     1  UNL1       -0.3493
     19 C         144.3300  142.0178  161.6929 C.3     1  UNL1        0.1742
     20 C         143.8113  143.4189  161.5587 C.3     1  UNL1        0.1742
     21 C         143.7218  144.6867  163.8246 C.3     1  UNL1        0.1742
     22 O         144.3251  144.4987  162.4642 O.3     1  UNL1       -0.3484
     23 C         140.0895  138.2037  164.6322 C.3     1  UNL1        0.0987
     24 C         139.3243  138.8528  163.5173 C.3     1  UNL1        0.0422
     25 C         138.6923  138.0085  162.4505 C.3     1  UNL1        0.0065
     26 C         139.1912  140.3461  163.4689 C.ar    1  UNL1       -0.0208
     27 C         137.8646  140.9900  163.7437 C.ar    1  UNL1       -0.0034
     28 C         137.7314  142.4833  163.6954 C.ar    1  UNL1        0.0111
     29 C         138.9249  143.3327  163.3723 C.ar    1  UNL1        0.0577
     30 CL        138.7918  144.8260  163.3240 Cl      1  UNL1       -0.0822
     31 C         140.2515  142.6887  163.0975 C.ar    1  UNL1        0.0111
     32 C         140.3846  141.1954  163.1458 C.ar    1  UNL1       -0.0034
@<TRIPOS>BOND
     1    21    22    1
     2    22    20    1
     3    20    19    1
     4    19    18    1
     5    18    17    1
     6    17    16    1
     7    16    12    1
     8    12    13   am
     9    13    14    2
    10    13     1    1
    11     1     2    1
    12     2     3   ar
    13     3     4   ar
    14     4     5    1
    15     4     6   ar
    16     6     7   ar
    17     7     8   ar
    18     8     9    1
    19     9    10    2
    20     9    11   am
    21    11    23    1
    22    23    24    1
    23    24    25    1
    24    24    26    1
    25    26    27   ar
    26    27    28   ar
    27    28    29   ar
    28    29    30    1
    29    29    31   ar
    30    31    32   ar
    31    11     1    1
    32    32    26   ar
    33     8     2   ar
    34    12    15    1
@<TRIPOS>MOLECULE
*****
 32 34 0 0 0
SMALL
GASTEIGER

@<TRIPOS>ATOM
      1 C         140.6264  139.5065  165.1872 C.3     1  UNL1        0.1752
      2 C         140.6289  139.7719  166.6635 C.ar    1  UNL1        0.0111
      3 C         139.5897  140.3426  167.5825 C.ar    1  UNL1        0.0276
      4 C         139.8833  140.4922  169.0458 C.ar    1  UNL1        0.1399
      5 F         138.8441  141.0628  169.9648 F       1  UNL1       -0.2042
      6 C         141.2161  140.0712  169.5902 C.ar    1  UNL1        0.0298
      7 C         142.2553  139.5006  168.6713 C.ar    1  UNL1        0.0066
      8 C         141.9617  139.3509  167.2079 C.ar    1  UNL1        0.0518
      9 C         142.7829  138.8254  166.0680 C.2     1  UNL1        0.2493
     10 O         144.1835  138.2965  166.1608 O.2     1  UNL1       -0.2699
     11 N         141.9577  138.9215  164.8191 N.am    1  UNL1       -0.2658
     12 N         139.1010  141.1920  163.9291 N.am    1  UNL1       -0.3004
     13 C         139.4918  139.7784  164.2444 C.2     1  UNL1        0.2450
     14 O         138.7480  138.6370  163.6170 O.2     1  UNL1       -0.2729
     15 H         139.5892  141.9412  164.3409 H       1  UNL1        0.1496
     16 C         137.9664  141.4639  162.9863 C.3     1  UNL1        0.1217
     17 C         138.1213  142.4892  161.9026 C.3     1  UNL1        0.1634
     18 O         137.8991  143.9412  162.2066 O.3     1  UNL1       -0.3493
     19 C         139.0080  144.7625  162.7950 C.3     1  UNL1        0.1742
     20 C         139.5544  145.9367  162.0383 C.3     1  UNL1        0.1742
     21 C         140.8577  145.0811  159.9601 C.3     1  UNL1        0.1742
     22 O         139.7185  145.8588  160.5494 O.3     1  UNL1       -0.3484
     23 C         142.3881  138.5057  163.4437 C.3     1  UNL1        0.0987
     24 C         143.2256  139.4284  162.6089 C.3     1  UNL1        0.0422
     25 C         143.9172  138.9106  161.3826 C.3     1  UNL1        0.0065
     26 C         143.3717  140.8691  163.0003 C.ar    1  UNL1       -0.0208
     27 C         144.5065  141.2948  163.8841 C.ar    1  UNL1       -0.0034
     28 C         144.6526  142.7355  164.2755 C.ar    1  UNL1        0.0111
     29 C         143.6638  143.7504  163.7831 C.ar    1  UNL1        0.0577
     30 CL        143.8099  145.1911  164.1744 Cl      1  UNL1       -0.0822
     31 C         142.5291  143.3246  162.8993 C.ar    1  UNL1        0.0111
     32 C         142.3830  141.8840  162.5079 C.ar    1  UNL1       -0.0034
@<TRIPOS>BOND
     1    21    22    1
     2    22    20    1
     3    20    19    1
     4    19    18    1
     5    18    17    1
     6    17    16    1
     7    16    12    1
     8    12    13   am
     9    13    14    2
    10    13     1    1
    11     1     2    1
    12     2     3   ar
    13     3     4   ar
    14     4     5    1
    15     4     6   ar
    16     6     7   ar
    17     7     8   ar
    18     8     9    1
    19     9    10    2
    20     9    11   am
    21    11    23    1
    22    23    24    1
    23    24    25    1
    24    24    26    1
    25    26    27   ar
    26    27    28   ar
    27    28    29   ar
    28    29    30    1
    29    29    31   ar
    30    31    32   ar
    31    11     1    1
    32    32    26   ar
    33     8     2   ar
    34    12    15    1
@<TRIPOS>MOLECULE
*****
 32 34 0 0 0
SMALL
GASTEIGER

@<TRIPOS>ATOM
      1 C         140.8046  141.4007  166.3435 C.3     1  UNL1        0.1752
      2 C         141.5613  141.4415  167.6380 C.ar    1  UNL1        0.0111
      3 C         142.8542  142.0963  168.0246 C.ar    1  UNL1        0.0276
      4 C         143.3743  141.9606  169.4250 C.ar    1  UNL1        0.1399
      5 F         144.6672  142.6155  169.8117 F       1  UNL1       -0.2042
      6 C         142.6014  141.1700  170.4387 C.ar    1  UNL1        0.0298
      7 C         141.3086  140.5151  170.0521 C.ar    1  UNL1        0.0066
      8 C         140.7885  140.6508  168.6517 C.ar    1  UNL1        0.0518
      9 C         139.5542  140.1215  167.9837 C.2     1  UNL1        0.2493
     10 O         138.4957  139.2769  168.6290 O.2     1  UNL1       -0.2699
     11 N         139.5641  140.5849  166.5571 N.am    1  UNL1       -0.2658
     12 N         141.2140  143.5562  164.9518 N.am    1  UNL1       -0.3004
     13 C         141.2161  142.0601  165.0605 C.2     1  UNL1        0.2450
     14 O         141.6299  141.2234  163.8864 O.2     1  UNL1       -0.2729
     15 H         140.9424  144.1054  165.7225 H       1  UNL1        0.1496
     16 C         141.6255  144.2155  163.6689 C.3     1  UNL1        0.1217
     17 C         143.0249  144.7302  163.5055 C.3     1  UNL1        0.1634
     18 O         143.7503  144.5317  162.2077 O.3     1  UNL1       -0.3493
     19 C         144.5784  143.2996  161.9921 C.3     1  UNL1        0.1742
     20 C         144.9056  142.4038  163.1499 C.3     1  UNL1        0.1742
     21 C         145.0501  139.9851  164.0871 C.3     1  UNL1        0.1742
     22 O         145.1085  140.9344  162.9273 O.3     1  UNL1       -0.3484
     23 C         138.5174  140.2852  165.5254 C.3     1  UNL1        0.0987
     24 C         138.6477  139.0700  164.6558 C.3     1  UNL1        0.0422
     25 C         138.7527  137.7095  165.2790 C.3     1  UNL1        0.0065
     26 C         138.6729  139.2151  163.1631 C.ar    1  UNL1       -0.0208
     27 C         138.1319  140.4582  162.5211 C.ar    1  UNL1       -0.0034
     28 C         138.1572  140.6033  161.0284 C.ar    1  UNL1        0.0111
     29 C         138.7234  139.5053  160.1776 C.ar    1  UNL1        0.0577
     30 CL        138.7486  139.6504  158.6848 Cl      1  UNL1       -0.0822
     31 C         139.2643  138.2622  160.8195 C.ar    1  UNL1        0.0111
     32 C         139.2391  138.1171  162.3123 C.ar    1  UNL1       -0.0034
@<TRIPOS>BOND
     1    21    22    1
     2    22    20    1
     3    20    19    1
     4    19    18    1
     5    18    17    1
     6    17    16    1
     7    16    12    1
     8    12    13   am
     9    13    14    2
    10    13     1    1
    11     1     2    1
    12     2     3   ar
    13     3     4   ar
    14     4     5    1
    15     4     6   ar
    16     6     7   ar
    17     7     8   ar
    18     8     9    1
    19     9    10    2
    20     9    11   am
    21    11    23    1
    22    23    24    1
    23    24    25    1
    24    24    26    1
    25    26    27   ar
    26    27    28   ar
    27    28    29   ar
    28    29    30    1
    29    29    31   ar
    30    31    32   ar
    31    11     1    1
    32    32    26   ar
    33     8     2   ar
    34    12    15    1
@<TRIPOS>MOLECULE
*****
 32 34 0 0 0
SMALL
GASTEIGER

@<TRIPOS>ATOM
      1 C         140.4822  140.2794  166.3019 C.3     1  UNL1        0.1752
      2 C         141.0060  141.1249  167.4248 C.ar    1  UNL1        0.0111
      3 C         140.4928  142.3852  168.0560 C.ar    1  UNL1        0.0276
      4 C         141.2468  143.0179  169.1878 C.ar    1  UNL1        0.1399
      5 F         140.7336  144.2782  169.8191 F       1  UNL1       -0.2042
      6 C         142.5138  142.3903  169.6885 C.ar    1  UNL1        0.0298
      7 C         143.0270  141.1301  169.0573 C.ar    1  UNL1        0.0066
      8 C         142.2730  140.4974  167.9255 C.ar    1  UNL1        0.0518
      9 C         142.5324  139.2641  167.1120 C.2     1  UNL1        0.2493
     10 O         143.6945  138.3295  167.2737 O.2     1  UNL1       -0.2699
     11 N         141.4256  139.1293  166.1086 N.am    1  UNL1       -0.2658
     12 N         139.1731  141.7018  164.5660 N.am    1  UNL1       -0.3004
     13 C         139.2342  140.5385  165.5112 C.2     1  UNL1        0.2450
     14 O         138.0472  139.6345  165.6655 O.2     1  UNL1       -0.2729
     15 H         139.9521  142.2951  164.4647 H       1  UNL1        0.1496
     16 C         137.9250  141.9609  163.7752 C.3     1  UNL1        0.1217
     17 C         137.6698  143.3233  163.2020 C.3     1  UNL1        0.1634
     18 O         138.3620  144.5219  163.7801 O.3     1  UNL1       -0.3493
     19 C         139.5385  145.1236  163.0701 C.3     1  UNL1        0.1742
     20 C         140.9321  144.7297  163.4609 C.3     1  UNL1        0.1742
     21 C         142.5048  143.2452  164.9004 C.3     1  UNL1        0.1742
     22 O         141.1563  143.8562  164.6594 O.3     1  UNL1       -0.3484
     23 C         141.2865  138.0364  165.0907 C.3     1  UNL1        0.0987
     24 C         141.2758  138.3704  163.6284 C.3     1  UNL1        0.0422
     25 C         140.3239  137.6686  162.7057 C.3     1  UNL1        0.0065
     26 C         142.2171  139.4061  163.0887 C.ar    1  UNL1       -0.0208
     27 C         141.6952  140.5175  162.2270 C.ar    1  UNL1       -0.0034
     28 C         142.6364  141.5533  161.6873 C.ar    1  UNL1        0.0111
     29 C         144.0995  141.4777  162.0094 C.ar    1  UNL1        0.0577
     30 CL        145.0408  142.5135  161.4697 Cl      1  UNL1       -0.0822
     31 C         144.6214  140.3663  162.8711 C.ar    1  UNL1        0.0111
     32 C         143.6801  139.3306  163.4108 C.ar    1  UNL1       -0.0034
@<TRIPOS>BOND
     1    21    22    1
     2    22    20    1
     3    20    19    1
     4    19    18    1
     5    18    17    1
     6    17    16    1
     7    16    12    1
     8    12    13   am
     9    13    14    2
    10    13     1    1
    11     1     2    1
    12     2     3   ar
    13     3     4   ar
    14     4     5    1
    15     4     6   ar
    16     6     7   ar
    17     7     8   ar
    18     8     9    1
    19     9    10    2
    20     9    11   am
    21    11    23    1
    22    23    24    1
    23    24    25    1
    24    24    26    1
    25    26    27   ar
    26    27    28   ar
    27    28    29   ar
    28    29    30    1
    29    29    31   ar
    30    31    32   ar
    31    11     1    1
    32    32    26   ar
    33     8     2   ar
    34    12    15    1
@<TRIPOS>MOLECULE
*****
 32 34 0 0 0
SMALL
GASTEIGER

@<TRIPOS>ATOM
      1 C         140.8612  140.7847  166.4102 C.3     1  UNL1        0.1752
      2 C         141.5726  141.1368  167.6830 C.ar    1  UNL1        0.0111
      3 C         142.8942  141.7962  167.9448 C.ar    1  UNL1        0.0276
      4 C         143.3534  142.0220  169.3548 C.ar    1  UNL1        0.1399
      5 F         144.6750  142.6815  169.6167 F       1  UNL1       -0.2042
      6 C         142.4910  141.5884  170.5030 C.ar    1  UNL1        0.0298
      7 C         141.1694  140.9290  170.2412 C.ar    1  UNL1        0.0066
      8 C         140.7102  140.7032  168.8312 C.ar    1  UNL1        0.0518
      9 C         139.4659  140.0831  168.2680 C.2     1  UNL1        0.2493
     10 O         138.3281  139.5128  169.0617 O.2     1  UNL1       -0.2699
     11 N         139.5592  140.1335  166.7717 N.am    1  UNL1       -0.2658
     12 N         142.2931  140.0591  164.3673 N.am    1  UNL1       -0.3004
     13 C         141.3637  141.0391  165.0200 C.2     1  UNL1        0.2450
     14 O         140.9369  142.2735  164.2824 O.2     1  UNL1       -0.2729
     15 H         142.5733  139.2489  164.8514 H       1  UNL1        0.1496
     16 C         142.7956  140.3136  162.9770 C.3     1  UNL1        0.1217
     17 C         144.2103  139.9697  162.6163 C.3     1  UNL1        0.1634
     18 O         145.2766  141.0231  162.6753 O.3     1  UNL1       -0.3493
     19 C         144.9352  142.4111  163.1305 C.3     1  UNL1        0.1742
     20 C         144.4672  143.4324  162.1366 C.3     1  UNL1        0.1742
     21 C         143.2046  145.1246  163.6505 C.3     1  UNL1        0.1742
     22 O         144.2123  144.8439  162.5753 O.3     1  UNL1       -0.3484
     23 C         138.5311  139.6224  165.8065 C.3     1  UNL1        0.0987
     24 C         138.9408  138.7136  164.6858 C.3     1  UNL1        0.0422
     25 C         139.6101  137.4054  164.9874 C.3     1  UNL1        0.0065
     26 C         138.6813  139.1128  163.2633 C.ar    1  UNL1       -0.0208
     27 C         139.1148  138.2160  162.1417 C.ar    1  UNL1       -0.0034
     28 C         138.8553  138.6153  160.7193 C.ar    1  UNL1        0.0111
     29 C         138.1623  139.9112  160.4185 C.ar    1  UNL1        0.0577
     30 CL        137.9028  140.3104  158.9961 Cl      1  UNL1       -0.0822
     31 C         137.7289  140.8078  161.5401 C.ar    1  UNL1        0.0111
     32 C         137.9884  140.4086  162.9626 C.ar    1  UNL1       -0.0034
@<TRIPOS>BOND
     1    21    22    1
     2    22    20    1
     3    20    19    1
     4    19    18    1
     5    18    17    1
     6    17    16    1
     7    16    12    1
     8    12    13   am
     9    13    14    2
    10    13     1    1
    11     1     2    1
    12     2     3   ar
    13     3     4   ar
    14     4     5    1
    15     4     6   ar
    16     6     7   ar
    17     7     8   ar
    18     8     9    1
    19     9    10    2
    20     9    11   am
    21    11    23    1
    22    23    24    1
    23    24    25    1
    24    24    26    1
    25    26    27   ar
    26    27    28   ar
    27    28    29   ar
    28    29    30    1
    29    29    31   ar
    30    31    32   ar
    31    11     1    1
    32    32    26   ar
    33     8     2   ar
    34    12    15    1
@<TRIPOS>MOLECULE
*****
 32 34 0 0 0
SMALL
GASTEIGER

@<TRIPOS>ATOM
      1 C         140.9000  139.8091  166.0849 C.3     1  UNL1        0.1752
      2 C         140.6902  140.3661  167.4617 C.ar    1  UNL1        0.0111
      3 C         141.5492  141.2303  168.3364 C.ar    1  UNL1        0.0276
      4 C         141.0644  141.6376  169.6962 C.ar    1  UNL1        0.1399
      5 F         141.9234  142.5019  170.5710 F       1  UNL1       -0.2042
      6 C         139.7205  141.1807  170.1813 C.ar    1  UNL1        0.0298
      7 C         138.8615  140.3164  169.3066 C.ar    1  UNL1        0.0066
      8 C         139.3463  139.9092  167.9468 C.ar    1  UNL1        0.0518
      9 C         138.7256  139.0698  166.8697 C.2     1  UNL1        0.2493
     10 O         137.3808  138.4083  166.9324 O.2     1  UNL1       -0.2699
     11 N         139.6858  139.0079  165.7189 N.am    1  UNL1       -0.2658
     12 N         143.0545  138.8785  164.9703 N.am    1  UNL1       -0.3004
     13 C         142.1113  140.0168  165.2249 C.2     1  UNL1        0.2450
     14 O         142.3795  141.3627  164.6195 O.2     1  UNL1       -0.2729
     15 H         142.8785  137.9951  165.3676 H       1  UNL1        0.1496
     16 C         144.2659  139.0863  164.1103 C.3     1  UNL1        0.1217
     17 C         144.1333  139.0890  162.6162 C.3     1  UNL1        0.1634
     18 O         143.5371  137.9051  161.9141 O.3     1  UNL1       -0.3493
     19 C         142.0589  137.8466  161.6656 C.3     1  UNL1        0.1742
     20 C         141.4826  138.4575  160.4227 C.3     1  UNL1        0.1742
     21 C         142.6036  137.7246  158.1966 C.3     1  UNL1        0.1742
     22 O         142.3729  138.7625  159.2547 O.3     1  UNL1       -0.3484
     23 C         139.4697  138.2738  164.4288 C.3     1  UNL1        0.0987
     24 C         138.7868  138.9579  163.2819 C.3     1  UNL1        0.0422
     25 C         138.1236  138.1440  162.2105 C.3     1  UNL1        0.0065
     26 C         138.7669  140.4559  163.2063 C.ar    1  UNL1       -0.0208
     27 C         139.7669  141.1770  162.3519 C.ar    1  UNL1       -0.0034
     28 C         139.7471  142.6750  162.2763 C.ar    1  UNL1        0.0111
     29 C         138.7273  143.4518  163.0552 C.ar    1  UNL1        0.0577
     30 CL        138.7074  144.9498  162.9796 Cl      1  UNL1       -0.0822
     31 C         137.7273  142.7306  163.9095 C.ar    1  UNL1        0.0111
     32 C         137.7472  141.2327  163.9851 C.ar    1  UNL1       -0.0034
@<TRIPOS>BOND
     1    21    22    1
     2    22    20    1
     3    20    19    1
     4    19    18    1
     5    18    17    1
     6    17    16    1
     7    16    12    1
     8    12    13   am
     9    13    14    2
    10    13     1    1
    11     1     2    1
    12     2     3   ar
    13     3     4   ar
    14     4     5    1
    15     4     6   ar
    16     6     7   ar
    17     7     8   ar
    18     8     9    1
    19     9    10    2
    20     9    11   am
    21    11    23    1
    22    23    24    1
    23    24    25    1
    24    24    26    1
    25    26    27   ar
    26    27    28   ar
    27    28    29   ar
    28    29    30    1
    29    29    31   ar
    30    31    32   ar
    31    11     1    1
    32    32    26   ar
    33     8     2   ar
    34    12    15    1
@<TRIPOS>MOLECULE
*****
 32 34 0 0 0
SMALL
GASTEIGER

@<TRIPOS>ATOM
      1 C         141.8727  140.7285  166.9479 C.3     1  UNL1        0.1752
      2 C         140.5291  140.0946  166.7405 C.ar    1  UNL1        0.0111
      3 C         139.4694  139.6502  167.7046 C.ar    1  UNL1        0.0276
      4 C         138.2002  139.0359  167.1932 C.ar    1  UNL1        0.1399
      5 F         137.1404  138.5915  168.1573 F       1  UNL1       -0.2042
      6 C         137.9907  138.8658  165.7176 C.ar    1  UNL1        0.0298
      7 C         139.0504  139.3102  164.7535 C.ar    1  UNL1        0.0066
      8 C         140.3196  139.9246  165.2650 C.ar    1  UNL1        0.0518
      9 C         141.5337  140.4534  164.5605 C.2     1  UNL1        0.2493
     10 O         141.7500  140.4806  163.0764 O.2     1  UNL1       -0.2699
     11 N         142.4936  140.9503  165.6006 N.am    1  UNL1       -0.2658
     12 N         142.5635  142.5126  168.7058 N.am    1  UNL1       -0.3004
     13 C         142.4874  141.0791  168.2705 C.2     1  UNL1        0.2450
     14 O         143.0261  139.9964  169.1578 O.2     1  UNL1       -0.2729
     15 H         142.2099  143.2233  168.1234 H       1  UNL1        0.1496
     16 C         143.1782  142.8632  170.0283 C.3     1  UNL1        0.1217
     17 C         144.6390  142.6182  170.2648 C.3     1  UNL1        0.1634
     18 O         145.6402  143.6887  169.9462 O.3     1  UNL1       -0.3493
     19 C         146.5307  144.2282  171.0261 C.3     1  UNL1        0.1742
     20 C         146.1841  145.5179  171.7094 C.3     1  UNL1        0.1742
     21 C         147.5348  146.6525  173.6167 C.3     1  UNL1        0.1742
     22 O         147.2741  146.4475  172.1538 O.3     1  UNL1       -0.3484
     23 C         143.8382  141.5615  165.3392 C.3     1  UNL1        0.0987
     24 C         143.9478  143.0215  165.0130 C.3     1  UNL1        0.0422
     25 C         144.9020  143.8911  165.7767 C.3     1  UNL1        0.0065
     26 C         143.1031  143.6119  163.9231 C.ar    1  UNL1       -0.0208
     27 C         141.8721  144.3961  164.2697 C.ar    1  UNL1       -0.0034
     28 C         141.0274  144.9865  163.1798 C.ar    1  UNL1        0.0111
     29 C         141.4137  144.7928  161.7433 C.ar    1  UNL1        0.0577
     30 CL        140.5690  145.3832  160.6534 Cl      1  UNL1       -0.0822
     31 C         142.6445  144.0087  161.3968 C.ar    1  UNL1        0.0111
     32 C         143.4892  143.4182  162.4867 C.ar    1  UNL1       -0.0034
@<TRIPOS>BOND
     1    21    22    1
     2    22    20    1
     3    20    19    1
     4    19    18    1
     5    18    17    1
     6    17    16    1
     7    16    12    1
     8    12    13   am
     9    13    14    2
    10    13     1    1
    11     1     2    1
    12     2     3   ar
    13     3     4   ar
    14     4     5    1
    15     4     6   ar
    16     6     7   ar
    17     7     8   ar
    18     8     9    1
    19     9    10    2
    20     9    11   am
    21    11    23    1
    22    23    24    1
    23    24    25    1
    24    24    26    1
    25    26    27   ar
    26    27    28   ar
    27    28    29   ar
    28    29    30    1
    29    29    31   ar
    30    31    32   ar
    31    11     1    1
    32    32    26   ar
    33     8     2   ar
    34    12    15    1
