@<TRIPOS>MOLECULE
*****
 33 36 0 0 0
SMALL
GASTEIGER

@<TRIPOS>ATOM
      1 C         141.2567  138.8552  164.8882 C.ar    1  UNL1        0.1488
      2 C         140.4421  137.6212  164.6359 C.ar    1  UNL1        0.0390
      3 C         139.2545  137.6806  163.7216 C.ar    1  UNL1        0.0417
      4 C         138.8814  138.9739  163.0597 C.ar    1  UNL1        0.1640
      5 N         137.7726  139.3353  162.1162 N.ar    1  UNL1       -0.2234
      6 C         137.9019  140.7927  161.7856 C.ar    1  UNL1        0.1197
      7 C         139.0906  141.3319  162.5246 C.ar    1  UNL1        0.1037
      8 N         139.6959  140.2079  163.3121 N.ar    1  UNL1       -0.2096
      9 N         140.8836  140.1485  164.2264 N.ar    1  UNL1       -0.1489
     10 C         139.5869  142.7469  162.4835 C.ar    1  UNL1        0.0223
     11 C         138.6093  143.8845  162.4727 C.ar    1  UNL1        0.0017
     12 C         139.1056  145.2994  162.4315 C.ar    1  UNL1        0.0032
     13 C         140.5794  145.5768  162.4012 C.ar    1  UNL1        0.0372
     14 C         141.5570  144.4391  162.4121 C.ar    1  UNL1        0.1469
     15 C         141.0607  143.0242  162.4532 C.ar    1  UNL1        0.0387
     16 O         143.0309  144.7164  162.3818 O.3     1  UNL1       -0.4045
     17 C         143.8697  144.4475  163.5959 C.3     1  UNL1        0.5753
     18 F         144.7086  144.1786  164.8101 F       1  UNL1       -0.1328
     19 F         144.6368  143.4068  162.8353 F       1  UNL1       -0.1328
     20 F         143.1025  145.4883  164.3564 F       1  UNL1       -0.1328
     21 N         142.4444  138.7959  165.8026 N.pl3   1  UNL1       -0.3184
     22 H         143.1114  138.0795  165.6972 H       1  UNL1        0.1482
     23 C         142.9586  141.8925  169.0269 C.3     1  UNL1        0.0248
     24 C         142.6743  140.4665  169.3951 C.3     1  UNL1        0.0040
     25 C         142.5029  139.4342  168.3203 C.3     1  UNL1        0.0196
     26 C         142.6158  139.8281  166.8773 C.3     1  UNL1        0.0704
     27 C         142.9001  141.2542  166.5091 C.3     1  UNL1        0.0196
     28 C         143.0715  142.2863  167.5839 C.3     1  UNL1        0.0040
     29 C         141.6548  143.1949  170.0774 C.3     1  UNL1        0.0293
     30 C         143.1301  142.9247  170.1016 C.3     1  UNL1        0.0884
     31 C         144.6053  142.6545  170.1259 C.3     1  UNL1        0.0293
     32 O         143.3014  143.9569  171.1765 O.3     1  UNL1       -0.3867
     33 H         144.2378  144.0147  171.4229 H       1  UNL1        0.2102
@<TRIPOS>BOND
     1    29    30    1
     2    30    31    1
     3    30    32    1
     4    23    30    1
     5    23    24    1
     6    24    25    1
     7    25    26    1
     8    26    21    1
     9    21     1    1
    10     1     2   ar
    11     2     3   ar
    12     3     4   ar
    13     4     5   ar
    14     5     6   ar
    15     6     7   ar
    16     7    10    1
    17    10    11   ar
    18    11    12   ar
    19    12    13   ar
    20    13    14   ar
    21    14    16    1
    22    16    17    1
    23    17    18    1
    24    17    19    1
    25    17    20    1
    26    14    15   ar
    27     7     8   ar
    28     8     9   ar
    29    26    27    1
    30    27    28    1
    31    28    23    1
    32     9     1   ar
    33     8     4   ar
    34    15    10   ar
    35    32    33    1
    36    21    22    1
@<TRIPOS>MOLECULE
*****
 33 36 0 0 0
SMALL
GASTEIGER

@<TRIPOS>ATOM
      1 C         139.1714  141.8202  164.3339 C.ar    1  UNL1        0.1488
      2 C         138.0168  142.7365  164.6118 C.ar    1  UNL1        0.0390
      3 C         137.8987  144.0383  163.8762 C.ar    1  UNL1        0.0417
      4 C         138.9351  144.4239  162.8628 C.ar    1  UNL1        0.1640
      5 N         139.0825  145.6337  161.9882 N.ar    1  UNL1       -0.2234
      6 C         140.3282  145.4651  161.1698 C.ar    1  UNL1        0.1197
      7 C         140.9507  144.1511  161.5386 C.ar    1  UNL1        0.1037
      8 N         140.0897  143.5076  162.5849 N.ar    1  UNL1       -0.2096
      9 N         140.2079  142.2058  163.3205 N.ar    1  UNL1       -0.1489
     10 C         142.2126  143.5807  160.9623 C.ar    1  UNL1        0.0223
     11 C         142.3990  143.5233  159.4750 C.ar    1  UNL1        0.0017
     12 C         143.6609  142.9529  158.8987 C.ar    1  UNL1        0.0032
     13 C         144.7365  142.4398  159.8096 C.ar    1  UNL1        0.0372
     14 C         144.5501  142.4971  161.2968 C.ar    1  UNL1        0.1469
     15 C         143.2882  143.0676  161.8732 C.ar    1  UNL1        0.0387
     16 O         145.6258  141.9840  162.2079 O.3     1  UNL1       -0.4045
     17 C         145.2616  141.1732  163.4161 C.3     1  UNL1        0.5753
     18 F         144.8974  140.3625  164.6245 F       1  UNL1       -0.1328
     19 F         144.7865  140.0622  162.5274 F       1  UNL1       -0.1328
     20 F         145.7368  142.2844  164.3049 F       1  UNL1       -0.1328
     21 N         139.2896  140.5182  165.0695 N.pl3   1  UNL1       -0.3184
     22 H         138.7792  139.7331  164.7658 H       1  UNL1        0.1482
     23 C         141.9775  140.2011  168.6646 C.3     1  UNL1        0.0248
     24 C         142.5714  140.3244  167.2928 C.3     1  UNL1        0.0040
     25 C         141.6754  140.4302  166.0943 C.3     1  UNL1        0.0196
     26 C         140.1856  140.4125  166.2679 C.3     1  UNL1        0.0704
     27 C         139.5917  140.2892  167.6398 C.3     1  UNL1        0.0196
     28 C         140.4877  140.1835  168.8382 C.3     1  UNL1        0.0040
     29 C         143.2373  141.5434  169.7187 C.3     1  UNL1        0.0293
     30 C         142.8735  140.0954  169.8630 C.3     1  UNL1        0.0884
     31 C         142.5097  138.6474  170.0072 C.3     1  UNL1        0.0293
     32 O         143.7695  139.9898  171.0613 O.3     1  UNL1       -0.3867
     33 H         143.7408  139.0841  171.4076 H       1  UNL1        0.2102
@<TRIPOS>BOND
     1    29    30    1
     2    30    31    1
     3    30    32    1
     4    23    30    1
     5    23    24    1
     6    24    25    1
     7    25    26    1
     8    26    21    1
     9    21     1    1
    10     1     2   ar
    11     2     3   ar
    12     3     4   ar
    13     4     5   ar
    14     5     6   ar
    15     6     7   ar
    16     7    10    1
    17    10    11   ar
    18    11    12   ar
    19    12    13   ar
    20    13    14   ar
    21    14    16    1
    22    16    17    1
    23    17    18    1
    24    17    19    1
    25    17    20    1
    26    14    15   ar
    27     7     8   ar
    28     8     9   ar
    29    26    27    1
    30    27    28    1
    31    28    23    1
    32     9     1   ar
    33     8     4   ar
    34    15    10   ar
    35    32    33    1
    36    21    22    1
@<TRIPOS>MOLECULE
*****
 33 36 0 0 0
SMALL
GASTEIGER

@<TRIPOS>ATOM
      1 C         138.8711  139.8022  163.6219 C.ar    1  UNL1        0.1488
      2 C         137.7866  139.5699  162.6122 C.ar    1  UNL1        0.0390
      3 C         137.6085  140.5252  161.4696 C.ar    1  UNL1        0.0417
      4 C         138.5150  141.7129  161.3368 C.ar    1  UNL1        0.1640
      5 N         138.5797  142.8179  160.3244 N.ar    1  UNL1       -0.2234
      6 C         139.7044  143.7331  160.7085 C.ar    1  UNL1        0.1197
      7 C         140.3346  143.1938  161.9583 C.ar    1  UNL1        0.1037
      8 N         139.5996  141.9453  162.3466 N.ar    1  UNL1       -0.2096
      9 N         139.7776  140.9899  163.4891 N.ar    1  UNL1       -0.1489
     10 C         141.4961  143.7971  162.6911 C.ar    1  UNL1        0.0223
     11 C         141.4392  145.2276  163.1388 C.ar    1  UNL1        0.0017
     12 C         142.6007  145.8309  163.8716 C.ar    1  UNL1        0.0032
     13 C         143.8190  145.0037  164.1568 C.ar    1  UNL1        0.0372
     14 C         143.8759  143.5732  163.7091 C.ar    1  UNL1        0.1469
     15 C         142.7144  142.9699  162.9763 C.ar    1  UNL1        0.0387
     16 O         145.0943  142.7459  163.9943 O.3     1  UNL1       -0.4045
     17 C         145.0771  141.2695  163.7302 C.3     1  UNL1        0.5753
     18 F         145.0598  139.7930  163.4661 F       1  UNL1       -0.1328
     19 F         145.6719  141.5052  162.3735 F       1  UNL1       -0.1328
     20 F         144.4822  141.0338  165.0869 F       1  UNL1       -0.1328
     21 N         139.0493  138.8468  164.7646 N.pl3   1  UNL1       -0.3184
     22 H         138.5694  137.9871  164.7668 H       1  UNL1        0.1482
     23 C         141.7769  139.9100  168.1821 C.3     1  UNL1        0.0248
     24 C         140.3002  140.1445  168.3003 C.3     1  UNL1        0.0040
     25 C         139.3909  139.7901  167.1611 C.3     1  UNL1        0.0196
     26 C         139.9585  139.2012  165.9037 C.3     1  UNL1        0.0704
     27 C         141.4353  138.9666  165.7856 C.3     1  UNL1        0.0196
     28 C         142.3445  139.3210  166.9247 C.3     1  UNL1        0.0040
     29 C         142.9191  141.6163  168.7147 C.3     1  UNL1        0.0293
     30 C         142.6861  140.2643  169.3212 C.3     1  UNL1        0.0884
     31 C         142.4532  138.9124  169.9278 C.3     1  UNL1        0.0293
     32 O         143.5954  140.6188  170.4604 O.3     1  UNL1       -0.3867
     33 H         143.6494  139.8709  171.0758 H       1  UNL1        0.2102
@<TRIPOS>BOND
     1    29    30    1
     2    30    31    1
     3    30    32    1
     4    23    30    1
     5    23    24    1
     6    24    25    1
     7    25    26    1
     8    26    21    1
     9    21     1    1
    10     1     2   ar
    11     2     3   ar
    12     3     4   ar
    13     4     5   ar
    14     5     6   ar
    15     6     7   ar
    16     7    10    1
    17    10    11   ar
    18    11    12   ar
    19    12    13   ar
    20    13    14   ar
    21    14    16    1
    22    16    17    1
    23    17    18    1
    24    17    19    1
    25    17    20    1
    26    14    15   ar
    27     7     8   ar
    28     8     9   ar
    29    26    27    1
    30    27    28    1
    31    28    23    1
    32     9     1   ar
    33     8     4   ar
    34    15    10   ar
    35    32    33    1
    36    21    22    1
@<TRIPOS>MOLECULE
*****
 33 36 0 0 0
SMALL
GASTEIGER

@<TRIPOS>ATOM
      1 C         143.5214  142.3594  164.3348 C.ar    1  UNL1        0.1488
      2 C         144.8467  142.6035  163.6761 C.ar    1  UNL1        0.0390
      3 C         145.2574  141.7818  162.4903 C.ar    1  UNL1        0.0417
      4 C         144.3430  140.7159  161.9634 C.ar    1  UNL1        0.1640
      5 N         144.4760  139.7548  160.8193 N.ar    1  UNL1       -0.2234
      6 C         143.2329  138.9168  160.7711 C.ar    1  UNL1        0.1197
      7 C         142.3316  139.3599  161.8853 C.ar    1  UNL1        0.1037
      8 N         143.0177  140.4718  162.6222 N.ar    1  UNL1       -0.2096
      9 N         142.6069  141.2935  163.8079 N.ar    1  UNL1       -0.1489
     10 C         140.9814  138.7910  162.2064 C.ar    1  UNL1        0.0223
     11 C         139.9260  138.7181  161.1429 C.ar    1  UNL1        0.0017
     12 C         138.5758  138.1492  161.4639 C.ar    1  UNL1        0.0032
     13 C         138.2807  137.6531  162.8483 C.ar    1  UNL1        0.0372
     14 C         139.3360  137.7259  163.9118 C.ar    1  UNL1        0.1469
     15 C         140.6863  138.2949  163.5908 C.ar    1  UNL1        0.0387
     16 O         139.0410  137.2299  165.2964 O.3     1  UNL1       -0.4045
     17 C         138.1389  138.0180  166.1992 C.3     1  UNL1        0.5753
     18 F         137.2366  138.8061  167.1020 F       1  UNL1       -0.1328
     19 F         138.7394  139.2931  165.6861 F       1  UNL1       -0.1328
     20 F         137.5383  136.7427  166.7122 F       1  UNL1       -0.1328
     21 N         143.1106  143.1811  165.5206 N.pl3   1  UNL1       -0.3184
     22 H         143.2606  144.1541  165.5210 H       1  UNL1        0.1482
     23 C         141.1923  141.1989  169.0760 C.3     1  UNL1        0.0248
     24 C         142.6726  141.4406  169.0602 C.3     1  UNL1        0.0040
     25 C         143.3120  142.1013  167.8750 C.3     1  UNL1        0.0196
     26 C         142.4712  142.5204  166.7057 C.3     1  UNL1        0.0704
     27 C         140.9908  142.2787  166.7216 C.3     1  UNL1        0.0196
     28 C         140.3514  141.6180  167.9067 C.3     1  UNL1        0.0040
     29 C         139.3152  140.2852  169.4523 C.3     1  UNL1        0.0293
     30 C         140.5529  140.5382  170.2611 C.3     1  UNL1        0.0884
     31 C         141.7905  140.7912  171.0699 C.3     1  UNL1        0.0293
     32 O         139.9134  139.8774  171.4463 O.3     1  UNL1       -0.3867
     33 H         140.5301  139.8892  172.1949 H       1  UNL1        0.2102
@<TRIPOS>BOND
     1    29    30    1
     2    30    31    1
     3    30    32    1
     4    23    30    1
     5    23    24    1
     6    24    25    1
     7    25    26    1
     8    26    21    1
     9    21     1    1
    10     1     2   ar
    11     2     3   ar
    12     3     4   ar
    13     4     5   ar
    14     5     6   ar
    15     6     7   ar
    16     7    10    1
    17    10    11   ar
    18    11    12   ar
    19    12    13   ar
    20    13    14   ar
    21    14    16    1
    22    16    17    1
    23    17    18    1
    24    17    19    1
    25    17    20    1
    26    14    15   ar
    27     7     8   ar
    28     8     9   ar
    29    26    27    1
    30    27    28    1
    31    28    23    1
    32     9     1   ar
    33     8     4   ar
    34    15    10   ar
    35    32    33    1
    36    21    22    1
@<TRIPOS>MOLECULE
*****
 33 36 0 0 0
SMALL
GASTEIGER

@<TRIPOS>ATOM
      1 C         139.2634  139.8411  167.9249 C.ar    1  UNL1        0.1488
      2 C         138.9893  140.1075  169.3753 C.ar    1  UNL1        0.0390
      3 C         139.9674  140.9011  170.1899 C.ar    1  UNL1        0.0417
      4 C         141.2195  141.4282  169.5541 C.ar    1  UNL1        0.1640
      5 N         142.3594  142.2358  170.1005 N.ar    1  UNL1       -0.2234
      6 C         143.3379  142.4684  168.9877 C.ar    1  UNL1        0.1197
      7 C         142.8028  141.8047  167.7536 C.ar    1  UNL1        0.1037
      8 N         141.4936  141.1618  168.1036 N.ar    1  UNL1       -0.2096
      9 N         140.5155  140.3682  167.2890 N.ar    1  UNL1       -0.1489
     10 C         143.4613  141.7869  166.4060 C.ar    1  UNL1        0.0223
     11 C         143.9020  143.0717  165.7696 C.ar    1  UNL1        0.0017
     12 C         144.5606  143.0539  164.4220 C.ar    1  UNL1        0.0032
     13 C         144.7784  141.7514  163.7108 C.ar    1  UNL1        0.0372
     14 C         144.3378  140.4666  164.3472 C.ar    1  UNL1        0.1469
     15 C         143.6792  140.4843  165.6948 C.ar    1  UNL1        0.0387
     16 O         144.5556  139.1639  163.6360 O.3     1  UNL1       -0.4045
     17 C         143.5988  138.7232  162.5682 C.3     1  UNL1        0.5753
     18 F         142.6419  138.2825  161.5003 F       1  UNL1       -0.1328
     19 F         142.7201  138.1007  163.6124 F       1  UNL1       -0.1328
     20 F         144.4775  139.3457  161.5239 F       1  UNL1       -0.1328
     21 N         138.2853  139.0474  167.1102 N.pl3   1  UNL1       -0.3184
     22 H         137.6037  138.4966  167.5587 H       1  UNL1        0.1482
     23 C         138.4667  139.1845  162.6159 C.3     1  UNL1        0.0248
     24 C         138.8682  137.9367  163.3450 C.3     1  UNL1        0.0040
     25 C         138.8077  137.8909  164.8431 C.3     1  UNL1        0.0196
     26 C         138.3458  139.0931  165.6121 C.3     1  UNL1        0.0704
     27 C         137.9444  140.3411  164.8830 C.3     1  UNL1        0.0196
     28 C         138.0048  140.3868  163.3849 C.3     1  UNL1        0.0040
     29 C         139.3901  138.0033  161.1153 C.3     1  UNL1        0.0293
     30 C         138.5272  139.2302  161.1179 C.3     1  UNL1        0.0884
     31 C         137.6643  140.4571  161.1205 C.3     1  UNL1        0.0293
     32 O         138.5877  139.2759  159.6198 O.3     1  UNL1       -0.3867
     33 H         138.0746  140.0337  159.2984 H       1  UNL1        0.2102
@<TRIPOS>BOND
     1    29    30    1
     2    30    31    1
     3    30    32    1
     4    23    30    1
     5    23    24    1
     6    24    25    1
     7    25    26    1
     8    26    21    1
     9    21     1    1
    10     1     2   ar
    11     2     3   ar
    12     3     4   ar
    13     4     5   ar
    14     5     6   ar
    15     6     7   ar
    16     7    10    1
    17    10    11   ar
    18    11    12   ar
    19    12    13   ar
    20    13    14   ar
    21    14    16    1
    22    16    17    1
    23    17    18    1
    24    17    19    1
    25    17    20    1
    26    14    15   ar
    27     7     8   ar
    28     8     9   ar
    29    26    27    1
    30    27    28    1
    31    28    23    1
    32     9     1   ar
    33     8     4   ar
    34    15    10   ar
    35    32    33    1
    36    21    22    1
@<TRIPOS>MOLECULE
*****
 33 36 0 0 0
SMALL
GASTEIGER

@<TRIPOS>ATOM
      1 C         142.2748  141.7997  167.2398 C.ar    1  UNL1        0.1488
      2 C         142.1670  141.7857  168.7358 C.ar    1  UNL1        0.0390
      3 C         141.0290  141.0681  169.3991 C.ar    1  UNL1        0.0417
      4 C         139.9988  140.3645  168.5664 C.ar    1  UNL1        0.1640
      5 N         138.7748  139.5798  168.9357 N.ar    1  UNL1       -0.2234
      6 C         138.1262  139.1088  167.6679 C.ar    1  UNL1        0.1197
      7 C         138.9492  139.6024  166.5151 C.ar    1  UNL1        0.1037
      8 N         140.1065  140.3785  167.0704 N.ar    1  UNL1       -0.2096
      9 N         141.2445  141.0961  166.4071 N.ar    1  UNL1       -0.1489
     10 C         138.6648  139.3621  165.0620 C.ar    1  UNL1        0.0223
     11 C         138.9066  138.0077  164.4644 C.ar    1  UNL1        0.0017
     12 C         138.6223  137.7675  163.0113 C.ar    1  UNL1        0.0032
     13 C         138.0961  138.8815  162.1558 C.ar    1  UNL1        0.0372
     14 C         137.8543  140.2359  162.7534 C.ar    1  UNL1        0.1469
     15 C         138.1387  140.4762  164.2065 C.ar    1  UNL1        0.0387
     16 O         137.3282  141.3502  161.8979 O.3     1  UNL1       -0.4045
     17 C         138.1208  142.6139  161.7412 C.3     1  UNL1        0.5753
     18 F         138.9135  143.8778  161.5846 F       1  UNL1       -0.1328
     19 F         139.0082  141.9334  160.7415 F       1  UNL1       -0.1328
     20 F         137.2333  143.2944  162.7409 F       1  UNL1       -0.1328
     21 N         143.4128  142.5173  166.5764 N.pl3   1  UNL1       -0.3184
     22 H         144.1600  142.8614  167.1174 H       1  UNL1        0.1482
     23 C         143.4116  143.0974  162.1140 C.3     1  UNL1        0.0248
     24 C         142.5007  143.9189  162.9773 C.3     1  UNL1        0.0040
     25 C         142.5011  143.7255  164.4649 C.3     1  UNL1        0.0196
     26 C         143.4124  142.7107  165.0890 C.3     1  UNL1        0.0704
     27 C         144.3233  141.8892  164.2256 C.3     1  UNL1        0.0196
     28 C         144.3229  142.0826  162.7381 C.3     1  UNL1        0.0040
     29 C         144.7137  142.5533  160.5303 C.3     1  UNL1        0.0293
     30 C         143.4112  143.2908  160.6266 C.3     1  UNL1        0.0884
     31 C         142.1086  144.0283  160.7228 C.3     1  UNL1        0.0293
     32 O         143.4108  143.4842  159.1390 O.3     1  UNL1       -0.3867
     33 H         142.6166  143.9755  158.8770 H       1  UNL1        0.2102
@<TRIPOS>BOND
     1    29    30    1
     2    30    31    1
     3    30    32    1
     4    23    30    1
     5    23    24    1
     6    24    25    1
     7    25    26    1
     8    26    21    1
     9    21     1    1
    10     1     2   ar
    11     2     3   ar
    12     3     4   ar
    13     4     5   ar
    14     5     6   ar
    15     6     7   ar
    16     7    10    1
    17    10    11   ar
    18    11    12   ar
    19    12    13   ar
    20    13    14   ar
    21    14    16    1
    22    16    17    1
    23    17    18    1
    24    17    19    1
    25    17    20    1
    26    14    15   ar
    27     7     8   ar
    28     8     9   ar
    29    26    27    1
    30    27    28    1
    31    28    23    1
    32     9     1   ar
    33     8     4   ar
    34    15    10   ar
    35    32    33    1
    36    21    22    1
@<TRIPOS>MOLECULE
*****
 33 36 0 0 0
SMALL
GASTEIGER

@<TRIPOS>ATOM
      1 C         143.5695  140.3064  164.5038 C.ar    1  UNL1        0.1488
      2 C         145.0466  140.5573  164.4332 C.ar    1  UNL1        0.0390
      3 C         145.6207  141.3382  163.2885 C.ar    1  UNL1        0.0417
      4 C         144.7177  141.8683  162.2144 C.ar    1  UNL1        0.1640
      5 N         144.9937  142.6658  160.9742 N.ar    1  UNL1       -0.2234
      6 C         143.6870  142.9077  160.2784 C.ar    1  UNL1        0.1197
      7 C         142.6036  142.2598  161.0886 C.ar    1  UNL1        0.1037
      8 N         143.2406  141.6174  162.2851 N.ar    1  UNL1       -0.2096
      9 N         142.6664  140.8364  163.4298 N.ar    1  UNL1       -0.1489
     10 C         141.1400  142.2550  160.7599 C.ar    1  UNL1        0.0223
     11 C         140.6518  141.5649  159.5208 C.ar    1  UNL1        0.0017
     12 C         139.1883  141.5602  159.1922 C.ar    1  UNL1        0.0032
     13 C         138.2129  142.2455  160.1026 C.ar    1  UNL1        0.0372
     14 C         138.7011  142.9357  161.3417 C.ar    1  UNL1        0.1469
     15 C         140.1647  142.9404  161.6704 C.ar    1  UNL1        0.0387
     16 O         137.7257  143.6211  162.2522 O.3     1  UNL1       -0.4045
     17 C         138.2229  144.4024  163.4322 C.3     1  UNL1        0.5753
     18 F         138.7200  145.1837  164.6123 F       1  UNL1       -0.1328
     19 F         138.6427  145.5154  162.5184 F       1  UNL1       -0.1328
     20 F         137.8030  143.2894  164.3460 F       1  UNL1       -0.1328
     21 N         142.9952  139.5253  165.6486 N.pl3   1  UNL1       -0.3184
     22 H         143.1291  138.5511  165.6961 H       1  UNL1        0.1482
     23 C         140.6609  141.6353  168.8655 C.3     1  UNL1        0.0248
     24 C         140.0257  140.5229  168.0851 C.3     1  UNL1        0.0040
     25 C         140.8038  139.8196  167.0127 C.3     1  UNL1        0.0196
     26 C         142.2171  140.2286  166.7209 C.3     1  UNL1        0.0704
     27 C         142.8523  141.3411  167.5013 C.3     1  UNL1        0.0196
     28 C         142.0742  142.0444  168.5736 C.3     1  UNL1        0.0040
     29 C         140.6363  143.6042  169.6545 C.3     1  UNL1        0.0293
     30 C         139.8828  142.3386  169.9378 C.3     1  UNL1        0.0884
     31 C         139.1292  141.0729  170.2211 C.3     1  UNL1        0.0293
     32 O         139.1046  143.0420  171.0101 O.3     1  UNL1       -0.3867
     33 H         138.4775  142.4219  171.4140 H       1  UNL1        0.2102
@<TRIPOS>BOND
     1    29    30    1
     2    30    31    1
     3    30    32    1
     4    23    30    1
     5    23    24    1
     6    24    25    1
     7    25    26    1
     8    26    21    1
     9    21     1    1
    10     1     2   ar
    11     2     3   ar
    12     3     4   ar
    13     4     5   ar
    14     5     6   ar
    15     6     7   ar
    16     7    10    1
    17    10    11   ar
    18    11    12   ar
    19    12    13   ar
    20    13    14   ar
    21    14    16    1
    22    16    17    1
    23    17    18    1
    24    17    19    1
    25    17    20    1
    26    14    15   ar
    27     7     8   ar
    28     8     9   ar
    29    26    27    1
    30    27    28    1
    31    28    23    1
    32     9     1   ar
    33     8     4   ar
    34    15    10   ar
    35    32    33    1
    36    21    22    1
@<TRIPOS>MOLECULE
*****
 33 36 0 0 0
SMALL
GASTEIGER

@<TRIPOS>ATOM
      1 C         142.1400  139.1675  164.4433 C.ar    1  UNL1        0.1488
      2 C         141.8527  137.7045  164.2792 C.ar    1  UNL1        0.0390
      3 C         140.9717  137.2342  163.1600 C.ar    1  UNL1        0.0417
      4 C         140.3780  138.2268  162.2050 C.ar    1  UNL1        0.1640
      5 N         139.4795  138.0615  161.0152 N.ar    1  UNL1       -0.2234
      6 C         139.2115  139.4223  160.4441 C.ar    1  UNL1        0.1197
      7 C         139.9445  140.4287  161.2808 C.ar    1  UNL1        0.1037
      8 N         140.6654  139.6898  162.3690 N.ar    1  UNL1       -0.2096
      9 N         141.5464  140.1602  163.4882 N.ar    1  UNL1       -0.1489
     10 C         139.9547  141.9133  161.0668 C.ar    1  UNL1        0.0223
     11 C         140.3705  142.4771  159.7404 C.ar    1  UNL1        0.0017
     12 C         140.3807  143.9617  159.5264 C.ar    1  UNL1        0.0032
     13 C         139.9752  144.8826  160.6387 C.ar    1  UNL1        0.0372
     14 C         139.5594  144.3189  161.9651 C.ar    1  UNL1        0.1469
     15 C         139.5492  142.8343  162.1791 C.ar    1  UNL1        0.0387
     16 O         139.1538  145.2398  163.0776 O.3     1  UNL1       -0.4045
     17 C         139.2014  144.7647  164.4996 C.3     1  UNL1        0.5753
     18 F         139.2489  144.2896  165.9216 F       1  UNL1       -0.1328
     19 F         140.6833  144.9952  164.5270 F       1  UNL1       -0.1328
     20 F         137.7194  144.5343  164.4721 F       1  UNL1       -0.1328
     21 N         143.0211  139.6379  165.5625 N.pl3   1  UNL1       -0.3184
     22 H         143.9980  139.5358  165.4961 H       1  UNL1        0.1482
     23 C         141.1987  141.5159  169.2234 C.3     1  UNL1        0.0248
     24 C         141.2139  142.2658  167.9244 C.3     1  UNL1        0.0040
     25 C         141.8214  141.6398  166.7041 C.3     1  UNL1        0.0196
     26 C         142.4136  140.2639  166.7828 C.3     1  UNL1        0.0704
     27 C         142.3983  139.5140  168.0818 C.3     1  UNL1        0.0196
     28 C         141.7909  140.1400  169.3021 C.3     1  UNL1        0.0040
     29 C         140.7871  140.8606  171.1985 C.3     1  UNL1        0.0293
     30 C         140.5913  142.1419  170.4436 C.3     1  UNL1        0.0884
     31 C         140.3954  143.4232  169.6888 C.3     1  UNL1        0.0293
     32 O         139.9838  142.7679  171.6640 O.3     1  UNL1       -0.3867
     33 H         139.7334  143.6841  171.4668 H       1  UNL1        0.2102
@<TRIPOS>BOND
     1    29    30    1
     2    30    31    1
     3    30    32    1
     4    23    30    1
     5    23    24    1
     6    24    25    1
     7    25    26    1
     8    26    21    1
     9    21     1    1
    10     1     2   ar
    11     2     3   ar
    12     3     4   ar
    13     4     5   ar
    14     5     6   ar
    15     6     7   ar
    16     7    10    1
    17    10    11   ar
    18    11    12   ar
    19    12    13   ar
    20    13    14   ar
    21    14    16    1
    22    16    17    1
    23    17    18    1
    24    17    19    1
    25    17    20    1
    26    14    15   ar
    27     7     8   ar
    28     8     9   ar
    29    26    27    1
    30    27    28    1
    31    28    23    1
    32     9     1   ar
    33     8     4   ar
    34    15    10   ar
    35    32    33    1
    36    21    22    1
@<TRIPOS>MOLECULE
*****
 33 36 0 0 0
SMALL
GASTEIGER

@<TRIPOS>ATOM
      1 C         139.4254  142.8735  164.3414 C.ar    1  UNL1        0.1488
      2 C         138.8955  144.2624  164.1411 C.ar    1  UNL1        0.0390
      3 C         139.3579  145.0800  162.9717 C.ar    1  UNL1        0.0417
      4 C         140.3502  144.5088  162.0026 C.ar    1  UNL1        0.1640
      5 N         140.9853  145.0734  160.7664 N.ar    1  UNL1       -0.2234
      6 C         141.9076  144.0334  160.2029 C.ar    1  UNL1        0.1197
      7 C         141.8426  142.8261  161.0907 C.ar    1  UNL1        0.1037
      8 N         140.8801  143.1199  162.2030 N.ar    1  UNL1       -0.2096
      9 N         140.4177  142.3023  163.3724 N.ar    1  UNL1       -0.1489
     10 C         142.6061  141.5491  160.8998 C.ar    1  UNL1        0.0223
     11 C         142.8807  141.0392  159.5161 C.ar    1  UNL1        0.0017
     12 C         143.6442  139.7622  159.3251 C.ar    1  UNL1        0.0032
     13 C         144.1331  138.9952  160.5178 C.ar    1  UNL1        0.0372
     14 C         143.8585  139.5051  161.9015 C.ar    1  UNL1        0.1469
     15 C         143.0950  140.7820  162.0924 C.ar    1  UNL1        0.0387
     16 O         144.3474  138.7380  163.0943 O.3     1  UNL1       -0.4045
     17 C         143.9955  139.1985  164.4778 C.3     1  UNL1        0.5753
     18 F         143.6437  139.6589  165.8614 F       1  UNL1       -0.1328
     19 F         145.2595  140.0043  164.5310 F       1  UNL1       -0.1328
     20 F         142.7315  138.3925  164.4246 F       1  UNL1       -0.1328
     21 N         138.9630  142.0558  165.5109 N.pl3   1  UNL1       -0.3184
     22 H         138.0225  141.7709  165.5713 H       1  UNL1        0.1482
     23 C         141.8745  140.9046  168.7432 C.3     1  UNL1        0.0248
     24 C         140.7688  139.9659  168.3608 C.3     1  UNL1        0.0040
     25 C         139.7982  140.3497  167.2834 C.3     1  UNL1        0.0196
     26 C         139.9335  141.6720  166.5883 C.3     1  UNL1        0.0704
     27 C         141.0393  142.6107  166.9708 C.3     1  UNL1        0.0196
     28 C         142.0098  142.2269  168.0482 C.3     1  UNL1        0.0040
     29 C         143.4772  141.8784  169.7347 C.3     1  UNL1        0.0293
     30 C         142.8450  140.5208  169.8206 C.3     1  UNL1        0.0884
     31 C         142.2128  139.1633  169.9066 C.3     1  UNL1        0.0293
     32 O         143.8155  140.1371  170.8981 O.3     1  UNL1       -0.3867
     33 H         143.6393  139.2267  171.1828 H       1  UNL1        0.2102
@<TRIPOS>BOND
     1    29    30    1
     2    30    31    1
     3    30    32    1
     4    23    30    1
     5    23    24    1
     6    24    25    1
     7    25    26    1
     8    26    21    1
     9    21     1    1
    10     1     2   ar
    11     2     3   ar
    12     3     4   ar
    13     4     5   ar
    14     5     6   ar
    15     6     7   ar
    16     7    10    1
    17    10    11   ar
    18    11    12   ar
    19    12    13   ar
    20    13    14   ar
    21    14    16    1
    22    16    17    1
    23    17    18    1
    24    17    19    1
    25    17    20    1
    26    14    15   ar
    27     7     8   ar
    28     8     9   ar
    29    26    27    1
    30    27    28    1
    31    28    23    1
    32     9     1   ar
    33     8     4   ar
    34    15    10   ar
    35    32    33    1
    36    21    22    1
