@<TRIPOS>MOLECULE
*****
 30 34 0 0 0
SMALL
GASTEIGER

@<TRIPOS>ATOM
      1 C         140.4358  139.1885  164.8552 C.ar    1  UNL1        0.0681
      2 C         139.8782  139.9834  163.7118 C.ar    1  UNL1        0.0208
      3 C         140.0534  139.4966  162.3039 C.ar    1  UNL1        0.0384
      4 C         140.7862  138.2148  162.0394 C.ar    1  UNL1        0.1385
      5 C         141.3438  137.4199  163.1827 C.ar    1  UNL1        0.0384
      6 C         141.1686  137.9067  164.5906 C.ar    1  UNL1        0.0208
      7 C         138.0258  138.3620  166.4391 C.3     1  UNL1        0.0723
      8 C         139.0556  139.2622  167.0551 C.ar    1  UNL1        0.1268
      9 N         138.8803  139.7490  168.4630 N.ar    1  UNL1       -0.2318
     10 C         139.9101  140.6492  169.0790 C.ar    1  UNL1        0.0880
     11 C         139.7348  141.1361  170.4869 C.ar    1  UNL1        0.0194
     12 C         140.7646  142.0362  171.1028 C.ar    1  UNL1        0.0024
     13 C         141.9696  142.4494  170.3108 C.ar    1  UNL1        0.0116
     14 C         142.1448  141.9625  168.9029 C.ar    1  UNL1        0.0637
     15 CL        143.3499  142.3757  168.1110 Cl      1  UNL1       -0.0820
     16 C         141.1151  141.0624  168.2870 C.ar    1  UNL1        0.0847
     17 C         141.2903  140.5755  166.8791 C.ar    1  UNL1        0.2678
     18 O         142.4953  140.9887  166.0871 O.2     1  UNL1       -0.2665
     19 N         140.2606  139.6754  166.2631 N.ar    1  UNL1       -0.2626
     20 O         140.9615  137.7279  160.6314 O.3     1  UNL1       -0.4791
     21 C         141.9302  138.4151  159.7153 C.3     1  UNL1        0.1687
     22 C         142.9554  139.3553  160.2767 C.3     1  UNL1        0.0609
     23 C         143.9242  140.0425  159.3606 C.3     1  UNL1        0.0758
     24 N         143.8678  139.7895  157.8831 N.3     1  UNL1       -0.2737
     25 C         142.8427  138.8492  157.3218 C.3     1  UNL1        0.0758
     26 C         141.8739  138.1620  158.2379 C.3     1  UNL1        0.0609
     27 C         144.8366  140.4766  156.9670 C.3     1  UNL1        0.0575
     28 C         145.5058  140.1222  155.6721 C.3     1  UNL1        0.0160
     29 C         146.2066  141.4485  155.6714 C.3     1  UNL1        0.0028
     30 C         145.5374  141.8028  156.9661 C.3     1  UNL1        0.0160
@<TRIPOS>BOND
     1     7     8    1
     2     8     9   ar
     3     9    10   ar
     4    10    11   ar
     5    11    12   ar
     6    12    13   ar
     7    13    14   ar
     8    14    15    1
     9    14    16   ar
    10    16    17   ar
    11    17    18    2
    12    17    19   ar
    13    19     1    1
    14     1     2   ar
    15     2     3   ar
    16     3     4   ar
    17     4    20    1
    18    20    21    1
    19    21    22    1
    20    22    23    1
    21    23    24    1
    22    24    27    1
    23    27    28    1
    24    28    29    1
    25    29    30    1
    26    24    25    1
    27    25    26    1
    28     4     5   ar
    29     5     6   ar
    30    19     8   ar
    31     6     1   ar
    32    16    10   ar
    33    26    21    1
    34    30    27    1
@<TRIPOS>MOLECULE
*****
 30 34 0 0 0
SMALL
GASTEIGER

@<TRIPOS>ATOM
      1 C         140.4590  139.2997  164.6714 C.ar    1  UNL1        0.0681
      2 C         141.2826  138.0919  164.3354 C.ar    1  UNL1        0.0208
      3 C         141.4399  137.6653  162.9061 C.ar    1  UNL1        0.0384
      4 C         140.7737  138.4465  161.8126 C.ar    1  UNL1        0.1385
      5 C         139.9501  139.6543  162.1485 C.ar    1  UNL1        0.0384
      6 C         139.7927  140.0809  163.5779 C.ar    1  UNL1        0.0208
      7 C         138.0994  138.3578  166.2667 C.3     1  UNL1        0.0723
      8 C         139.1218  139.2553  166.8985 C.ar    1  UNL1        0.1268
      9 N         138.9645  139.6819  168.3279 N.ar    1  UNL1       -0.2318
     10 C         139.9870  140.5794  168.9597 C.ar    1  UNL1        0.0880
     11 C         139.8296  141.0059  170.3891 C.ar    1  UNL1        0.0194
     12 C         140.8520  141.9034  171.0209 C.ar    1  UNL1        0.0024
     13 C         142.0318  142.3743  170.2232 C.ar    1  UNL1        0.0116
     14 C         142.1892  141.9478  168.7938 C.ar    1  UNL1        0.0637
     15 CL        143.3690  142.4187  167.9961 Cl      1  UNL1       -0.0820
     16 C         141.1667  141.0503  168.1621 C.ar    1  UNL1        0.0847
     17 C         141.3241  140.6237  166.7326 C.ar    1  UNL1        0.2678
     18 O         142.5039  141.0947  165.9349 O.2     1  UNL1       -0.2665
     19 N         140.3016  139.7263  166.1008 N.ar    1  UNL1       -0.2626
     20 O         140.9310  138.0199  160.3831 O.3     1  UNL1       -0.4791
     21 C         141.9559  138.6826  159.5111 C.3     1  UNL1        0.1687
     22 C         142.0860  138.2840  158.0709 C.3     1  UNL1        0.0609
     23 C         143.1110  138.9467  157.1989 C.3     1  UNL1        0.0758
     24 N         144.0058  140.0080  157.7672 N.3     1  UNL1       -0.2737
     25 C         143.8757  140.4066  159.2074 C.3     1  UNL1        0.0758
     26 C         142.8508  139.7439  160.0794 C.3     1  UNL1        0.0609
     27 C         145.0308  140.6707  156.8953 C.3     1  UNL1        0.0575
     28 C         145.8527  141.9222  156.9878 C.3     1  UNL1        0.0160
     29 C         146.4803  141.6079  155.6622 C.3     1  UNL1        0.0028
     30 C         145.6585  140.3566  155.5697 C.3     1  UNL1        0.0160
@<TRIPOS>BOND
     1     7     8    1
     2     8     9   ar
     3     9    10   ar
     4    10    11   ar
     5    11    12   ar
     6    12    13   ar
     7    13    14   ar
     8    14    15    1
     9    14    16   ar
    10    16    17   ar
    11    17    18    2
    12    17    19   ar
    13    19     1    1
    14     1     2   ar
    15     2     3   ar
    16     3     4   ar
    17     4    20    1
    18    20    21    1
    19    21    22    1
    20    22    23    1
    21    23    24    1
    22    24    27    1
    23    27    28    1
    24    28    29    1
    25    29    30    1
    26    24    25    1
    27    25    26    1
    28     4     5   ar
    29     5     6   ar
    30    19     8   ar
    31     6     1   ar
    32    16    10   ar
    33    26    21    1
    34    30    27    1
@<TRIPOS>MOLECULE
*****
 30 34 0 0 0
SMALL
GASTEIGER

@<TRIPOS>ATOM
      1 C         140.9225  139.4115  160.2670 C.ar    1  UNL1        0.0681
      2 C         140.5264  139.4512  158.8208 C.ar    1  UNL1        0.0208
      3 C         141.3275  138.6952  157.8027 C.ar    1  UNL1        0.0384
      4 C         142.5247  137.8994  158.2308 C.ar    1  UNL1        0.1385
      5 C         142.9208  137.8596  159.6770 C.ar    1  UNL1        0.0384
      6 C         142.1197  138.6157  160.6951 C.ar    1  UNL1        0.0208
      7 C         138.7014  138.0412  161.7467 C.3     1  UNL1        0.0723
      8 C         139.0108  139.4824  162.0250 C.ar    1  UNL1        0.1268
      9 N         138.2096  140.2384  163.0431 N.ar    1  UNL1       -0.2318
     10 C         138.5189  141.6796  163.3214 C.ar    1  UNL1        0.0880
     11 C         137.7177  142.4356  164.3394 C.ar    1  UNL1        0.0194
     12 C         138.0271  143.8767  164.6177 C.ar    1  UNL1        0.0024
     13 C         139.1376  144.5618  163.8779 C.ar    1  UNL1        0.0116
     14 C         139.9388  143.8058  162.8598 C.ar    1  UNL1        0.0637
     15 CL        141.0494  144.4909  162.1200 Cl      1  UNL1       -0.0820
     16 C         139.6295  142.3647  162.5815 C.ar    1  UNL1        0.0847
     17 C         140.4307  141.6086  161.5634 C.ar    1  UNL1        0.2678
     18 O         141.5412  142.2937  160.8236 O.2     1  UNL1       -0.2665
     19 N         140.1213  140.1675  161.2852 N.ar    1  UNL1       -0.2626
     20 O         143.3259  137.1433  157.2127 O.3     1  UNL1       -0.4791
     21 C         142.8759  135.7852  156.7621 C.3     1  UNL1        0.1687
     22 C         143.4822  134.5546  157.3688 C.3     1  UNL1        0.0609
     23 C         143.0321  133.1965  156.9182 C.3     1  UNL1        0.0758
     24 N         141.9757  133.0691  155.8609 N.3     1  UNL1       -0.2737
     25 C         141.3695  134.2996  155.2542 C.3     1  UNL1        0.0758
     26 C         141.8195  135.6577  155.7048 C.3     1  UNL1        0.0609
     27 C         141.5257  131.7110  155.4103 C.3     1  UNL1        0.0575
     28 C         140.3613  131.1864  154.6233 C.3     1  UNL1        0.0160
     29 C         140.8892  129.7904  154.7730 C.3     1  UNL1        0.0028
     30 C         142.0534  130.3149  155.5599 C.3     1  UNL1        0.0160
@<TRIPOS>BOND
     1     7     8    1
     2     8     9   ar
     3     9    10   ar
     4    10    11   ar
     5    11    12   ar
     6    12    13   ar
     7    13    14   ar
     8    14    15    1
     9    14    16   ar
    10    16    17   ar
    11    17    18    2
    12    17    19   ar
    13    19     1    1
    14     1     2   ar
    15     2     3   ar
    16     3     4   ar
    17     4    20    1
    18    20    21    1
    19    21    22    1
    20    22    23    1
    21    23    24    1
    22    24    27    1
    23    27    28    1
    24    28    29    1
    25    29    30    1
    26    24    25    1
    27    25    26    1
    28     4     5   ar
    29     5     6   ar
    30    19     8   ar
    31     6     1   ar
    32    16    10   ar
    33    26    21    1
    34    30    27    1
@<TRIPOS>MOLECULE
*****
 30 34 0 0 0
SMALL
GASTEIGER

@<TRIPOS>ATOM
      1 C         141.2919  138.7971  162.0734 C.ar    1  UNL1        0.0681
      2 C         140.8090  139.6316  160.9243 C.ar    1  UNL1        0.0208
      3 C         141.3818  139.4238  159.5537 C.ar    1  UNL1        0.0384
      4 C         142.4375  138.3815  159.3321 C.ar    1  UNL1        0.1385
      5 C         142.9204  137.5470  160.4812 C.ar    1  UNL1        0.0384
      6 C         142.3476  137.7548  161.8518 C.ar    1  UNL1        0.0208
      7 C         138.6028  137.6602  162.7634 C.3     1  UNL1        0.0723
      8 C         139.3746  138.4365  163.7891 C.ar    1  UNL1        0.1268
      9 N         138.8017  138.6442  165.1597 N.ar    1  UNL1       -0.2318
     10 C         139.5735  139.4205  166.1854 C.ar    1  UNL1        0.0880
     11 C         139.0006  139.6283  167.5561 C.ar    1  UNL1        0.0194
     12 C         139.7724  140.4045  168.5816 C.ar    1  UNL1        0.0024
     13 C         141.1169  140.9729  168.2366 C.ar    1  UNL1        0.0116
     14 C         141.6898  140.7651  166.8660 C.ar    1  UNL1        0.0637
     15 CL        143.0343  141.3335  166.5210 Cl      1  UNL1       -0.0820
     16 C         140.9180  139.9889  165.8404 C.ar    1  UNL1        0.0847
     17 C         141.4909  139.7811  164.4697 C.ar    1  UNL1        0.2678
     18 O         142.8354  140.3495  164.1247 O.2     1  UNL1       -0.2665
     19 N         140.7191  139.0049  163.4441 N.ar    1  UNL1       -0.2626
     20 O         143.0103  138.1737  157.9614 O.3     1  UNL1       -0.4791
     21 C         142.6036  136.9781  157.1520 C.3     1  UNL1        0.1687
     22 C         141.4181  137.0603  156.2365 C.3     1  UNL1        0.0609
     23 C         141.0114  135.8647  155.4271 C.3     1  UNL1        0.0758
     24 N         141.7901  134.5870  155.5330 N.3     1  UNL1       -0.2737
     25 C         142.9756  134.5050  156.4485 C.3     1  UNL1        0.0758
     26 C         143.3823  135.7005  157.2579 C.3     1  UNL1        0.0609
     27 C         141.3834  133.3915  154.7236 C.3     1  UNL1        0.0575
     28 C         141.1838  133.1180  153.2623 C.3     1  UNL1        0.0160
     29 C         140.8082  131.7007  153.5789 C.3     1  UNL1        0.0028
     30 C         141.0079  131.9742  155.0401 C.3     1  UNL1        0.0160
@<TRIPOS>BOND
     1     7     8    1
     2     8     9   ar
     3     9    10   ar
     4    10    11   ar
     5    11    12   ar
     6    12    13   ar
     7    13    14   ar
     8    14    15    1
     9    14    16   ar
    10    16    17   ar
    11    17    18    2
    12    17    19   ar
    13    19     1    1
    14     1     2   ar
    15     2     3   ar
    16     3     4   ar
    17     4    20    1
    18    20    21    1
    19    21    22    1
    20    22    23    1
    21    23    24    1
    22    24    27    1
    23    27    28    1
    24    28    29    1
    25    29    30    1
    26    24    25    1
    27    25    26    1
    28     4     5   ar
    29     5     6   ar
    30    19     8   ar
    31     6     1   ar
    32    16    10   ar
    33    26    21    1
    34    30    27    1
@<TRIPOS>MOLECULE
*****
 30 34 0 0 0
SMALL
GASTEIGER

@<TRIPOS>ATOM
      1 C         139.4274  139.4220  165.0155 C.ar    1  UNL1        0.0681
      2 C         140.0767  138.1898  164.4587 C.ar    1  UNL1        0.0208
      3 C         139.8255  137.7875  163.0357 C.ar    1  UNL1        0.0384
      4 C         138.9249  138.6173  162.1696 C.ar    1  UNL1        0.1385
      5 C         138.2756  139.8495  162.7264 C.ar    1  UNL1        0.0384
      6 C         138.5269  140.2519  164.1494 C.ar    1  UNL1        0.0208
      7 C         137.5646  138.5106  167.1833 C.3     1  UNL1        0.0723
      8 C         138.7473  139.3686  167.5225 C.ar    1  UNL1        0.1268
      9 N         138.9985  139.7709  168.9455 N.ar    1  UNL1       -0.2318
     10 C         140.1812  140.6290  169.2847 C.ar    1  UNL1        0.0880
     11 C         140.4325  141.0313  170.7077 C.ar    1  UNL1        0.0194
     12 C         141.6151  141.8893  171.0468 C.ar    1  UNL1        0.0024
     13 C         142.5465  142.3451  169.9629 C.ar    1  UNL1        0.0116
     14 C         142.2953  141.9428  168.5399 C.ar    1  UNL1        0.0637
     15 CL        143.2267  142.3985  167.4561 Cl      1  UNL1       -0.0820
     16 C         141.1127  141.0848  168.2008 C.ar    1  UNL1        0.0847
     17 C         140.8614  140.6824  166.7777 C.ar    1  UNL1        0.2678
     18 O         141.7928  141.1382  165.6939 O.2     1  UNL1       -0.2665
     19 N         139.6787  139.8244  166.4386 N.ar    1  UNL1       -0.2626
     20 O         138.6736  138.2150  160.7465 O.3     1  UNL1       -0.4791
     21 C         139.1393  139.0953  159.6248 C.3     1  UNL1        0.1687
     22 C         140.5177  138.9227  159.0587 C.3     1  UNL1        0.0609
     23 C         140.9833  139.8031  157.9370 C.3     1  UNL1        0.0758
     24 N         140.0707  140.8560  157.3815 N.3     1  UNL1       -0.2737
     25 C         138.6924  141.0285  157.9476 C.3     1  UNL1        0.0758
     26 C         138.2267  140.1482  159.0693 C.3     1  UNL1        0.0609
     27 C         140.5364  141.7363  156.2598 C.3     1  UNL1        0.0575
     28 C         141.6784  141.7011  155.2878 C.3     1  UNL1        0.0160
     29 C         141.1949  142.9813  154.6735 C.3     1  UNL1        0.0028
     30 C         140.0530  143.0165  155.6454 C.3     1  UNL1        0.0160
@<TRIPOS>BOND
     1     7     8    1
     2     8     9   ar
     3     9    10   ar
     4    10    11   ar
     5    11    12   ar
     6    12    13   ar
     7    13    14   ar
     8    14    15    1
     9    14    16   ar
    10    16    17   ar
    11    17    18    2
    12    17    19   ar
    13    19     1    1
    14     1     2   ar
    15     2     3   ar
    16     3     4   ar
    17     4    20    1
    18    20    21    1
    19    21    22    1
    20    22    23    1
    21    23    24    1
    22    24    27    1
    23    27    28    1
    24    28    29    1
    25    29    30    1
    26    24    25    1
    27    25    26    1
    28     4     5   ar
    29     5     6   ar
    30    19     8   ar
    31     6     1   ar
    32    16    10   ar
    33    26    21    1
    34    30    27    1
@<TRIPOS>MOLECULE
*****
 30 34 0 0 0
SMALL
GASTEIGER

@<TRIPOS>ATOM
      1 C         142.0996  138.6066  159.9924 C.ar    1  UNL1        0.0681
      2 C         141.6870  137.9093  161.2547 C.ar    1  UNL1        0.0208
      3 C         142.4710  138.1163  162.5166 C.ar    1  UNL1        0.0384
      4 C         143.6677  139.0206  162.5161 C.ar    1  UNL1        0.1385
      5 C         144.0804  139.7179  161.2538 C.ar    1  UNL1        0.0384
      6 C         143.2963  139.5109  159.9919 C.ar    1  UNL1        0.0208
      7 C         139.4669  139.9952  159.6175 C.3     1  UNL1        0.0723
      8 C         139.9991  139.0939  158.5430 C.ar    1  UNL1        0.1268
      9 N         139.2150  138.8869  157.2812 N.ar    1  UNL1       -0.2318
     10 C         139.7472  137.9856  156.2067 C.ar    1  UNL1        0.0880
     11 C         138.9631  137.7786  154.9449 C.ar    1  UNL1        0.0194
     12 C         139.4953  136.8773  153.8705 C.ar    1  UNL1        0.0024
     13 C         140.8117  136.1830  154.0580 C.ar    1  UNL1        0.0116
     14 C         141.5958  136.3900  155.3198 C.ar    1  UNL1        0.0637
     15 CL        142.9122  135.6957  155.5072 Cl      1  UNL1       -0.0820
     16 C         141.0636  137.2913  156.3942 C.ar    1  UNL1        0.0847
     17 C         141.8477  137.4983  157.6561 C.ar    1  UNL1        0.2678
     18 O         143.1641  136.8040  157.8435 O.2     1  UNL1       -0.2665
     19 N         141.3155  138.3996  158.7305 N.ar    1  UNL1       -0.2626
     20 O         144.4519  139.2276  163.7780 O.3     1  UNL1       -0.4791
     21 C         143.8496  139.9941  164.9180 C.3     1  UNL1        0.1687
     22 C         143.9513  141.4903  164.9526 C.3     1  UNL1        0.0609
     23 C         143.3490  142.2569  166.0926 C.3     1  UNL1        0.0758
     24 N         142.6449  141.5273  167.1981 N.3     1  UNL1       -0.2737
     25 C         142.5432  140.0311  167.1635 C.3     1  UNL1        0.0758
     26 C         143.1455  139.2646  166.0235 C.3     1  UNL1        0.0609
     27 C         142.0426  142.2938  168.3381 C.3     1  UNL1        0.0575
     28 C         142.5415  142.7927  169.6618 C.3     1  UNL1        0.0160
     29 C         141.1908  143.3779  169.9503 C.3     1  UNL1        0.0028
     30 C         140.6920  142.8790  168.6266 C.3     1  UNL1        0.0160
@<TRIPOS>BOND
     1     7     8    1
     2     8     9   ar
     3     9    10   ar
     4    10    11   ar
     5    11    12   ar
     6    12    13   ar
     7    13    14   ar
     8    14    15    1
     9    14    16   ar
    10    16    17   ar
    11    17    18    2
    12    17    19   ar
    13    19     1    1
    14     1     2   ar
    15     2     3   ar
    16     3     4   ar
    17     4    20    1
    18    20    21    1
    19    21    22    1
    20    22    23    1
    21    23    24    1
    22    24    27    1
    23    27    28    1
    24    28    29    1
    25    29    30    1
    26    24    25    1
    27    25    26    1
    28     4     5   ar
    29     5     6   ar
    30    19     8   ar
    31     6     1   ar
    32    16    10   ar
    33    26    21    1
    34    30    27    1
@<TRIPOS>MOLECULE
*****
 30 34 0 0 0
SMALL
GASTEIGER

@<TRIPOS>ATOM
      1 C         140.6921  138.8606  159.0672 C.ar    1  UNL1        0.0681
      2 C         142.1478  138.4991  159.0495 C.ar    1  UNL1        0.0208
      3 C         142.6873  137.6122  157.9668 C.ar    1  UNL1        0.0384
      4 C         141.7711  137.0868  156.9017 C.ar    1  UNL1        0.1385
      5 C         140.3154  137.4483  156.9194 C.ar    1  UNL1        0.0384
      6 C         139.7759  138.3351  158.0021 C.ar    1  UNL1        0.0208
      7 C         140.4821  141.8192  158.6171 C.3     1  UNL1        0.0723
      8 C         140.0477  141.2268  159.9250 C.ar    1  UNL1        0.1268
      9 N         139.5083  142.1137  161.0077 N.ar    1  UNL1       -0.2318
     10 C         139.0738  141.5213  162.3156 C.ar    1  UNL1        0.0880
     11 C         138.5344  142.4082  163.3983 C.ar    1  UNL1        0.0194
     12 C         138.1000  141.8159  164.7061 C.ar    1  UNL1        0.0024
     13 C         138.2051  140.3366  164.9311 C.ar    1  UNL1        0.0116
     14 C         138.7445  139.4496  163.8484 C.ar    1  UNL1        0.0637
     15 CL        138.8495  137.9703  164.0734 Cl      1  UNL1       -0.0820
     16 C         139.1789  140.0420  162.5406 C.ar    1  UNL1        0.0847
     17 C         139.7183  139.1551  161.4578 C.ar    1  UNL1        0.2678
     18 O         139.8233  137.6758  161.6828 O.2     1  UNL1       -0.2665
     19 N         140.1527  139.7475  160.1500 N.ar    1  UNL1       -0.2626
     20 O         142.3105  136.1999  155.8189 O.3     1  UNL1       -0.4791
     21 C         142.5322  134.7405  156.0857 C.3     1  UNL1        0.1687
     22 C         143.6164  134.3064  157.0270 C.3     1  UNL1        0.0609
     23 C         143.8381  132.8471  157.2938 C.3     1  UNL1        0.0758
     24 N         142.9754  131.8218  156.6193 N.3     1  UNL1       -0.2737
     25 C         141.8912  132.2560  155.6780 C.3     1  UNL1        0.0758
     26 C         141.6696  133.7153  155.4112 C.3     1  UNL1        0.0609
     27 C         143.1971  130.3625  156.8861 C.3     1  UNL1        0.0575
     28 C         144.0264  129.5758  157.8574 C.3     1  UNL1        0.0160
     29 C         143.5105  128.2987  157.2634 C.3     1  UNL1        0.0028
     30 C         142.6813  129.0853  156.2921 C.3     1  UNL1        0.0160
@<TRIPOS>BOND
     1     7     8    1
     2     8     9   ar
     3     9    10   ar
     4    10    11   ar
     5    11    12   ar
     6    12    13   ar
     7    13    14   ar
     8    14    15    1
     9    14    16   ar
    10    16    17   ar
    11    17    18    2
    12    17    19   ar
    13    19     1    1
    14     1     2   ar
    15     2     3   ar
    16     3     4   ar
    17     4    20    1
    18    20    21    1
    19    21    22    1
    20    22    23    1
    21    23    24    1
    22    24    27    1
    23    27    28    1
    24    28    29    1
    25    29    30    1
    26    24    25    1
    27    25    26    1
    28     4     5   ar
    29     5     6   ar
    30    19     8   ar
    31     6     1   ar
    32    16    10   ar
    33    26    21    1
    34    30    27    1
@<TRIPOS>MOLECULE
*****
 30 34 0 0 0
SMALL
GASTEIGER

@<TRIPOS>ATOM
      1 C         140.2243  138.9999  160.2389 C.ar    1  UNL1        0.0681
      2 C         139.3915  138.1352  161.1382 C.ar    1  UNL1        0.0208
      3 C         138.6696  138.7422  162.3044 C.ar    1  UNL1        0.0384
      4 C         138.7805  140.2141  162.5714 C.ar    1  UNL1        0.1385
      5 C         139.6132  141.0789  161.6721 C.ar    1  UNL1        0.0384
      6 C         140.3351  140.4718  160.5059 C.ar    1  UNL1        0.0208
      7 C         143.0123  137.9473  160.5834 C.3     1  UNL1        0.0723
      8 C         142.3402  137.8665  159.2448 C.ar    1  UNL1        0.1268
      9 N         143.0622  137.2593  158.0786 N.ar    1  UNL1       -0.2318
     10 C         142.3901  137.1785  156.7400 C.ar    1  UNL1        0.0880
     11 C         143.1120  136.5714  155.5737 C.ar    1  UNL1        0.0194
     12 C         142.4399  136.4905  154.2352 C.ar    1  UNL1        0.0024
     13 C         141.0459  137.0168  154.0629 C.ar    1  UNL1        0.0116
     14 C         140.3239  137.6240  155.2291 C.ar    1  UNL1        0.0637
     15 CL        138.9299  138.1503  155.0569 Cl      1  UNL1       -0.0820
     16 C         140.9960  137.7048  156.5677 C.ar    1  UNL1        0.0847
     17 C         140.2741  138.3120  157.7340 C.ar    1  UNL1        0.2678
     18 O         138.8801  138.8383  157.5617 O.2     1  UNL1       -0.2665
     19 N         140.9462  138.3928  159.0725 N.ar    1  UNL1       -0.2626
     20 O         138.0585  140.8213  163.7378 O.3     1  UNL1       -0.4791
     21 C         138.8274  141.2674  164.9460 C.3     1  UNL1        0.1687
     22 C         139.2214  142.7071  165.0948 C.3     1  UNL1        0.0609
     23 C         139.9903  143.1532  166.3030 C.3     1  UNL1        0.0758
     24 N         140.3651  142.1596  167.3625 N.3     1  UNL1       -0.2737
     25 C         139.9711  140.7200  167.2137 C.3     1  UNL1        0.0758
     26 C         139.2022  140.2739  166.0054 C.3     1  UNL1        0.0609
     27 C         141.1340  142.6057  168.5707 C.3     1  UNL1        0.0575
     28 C         140.8804  143.5669  169.6940 C.3     1  UNL1        0.0160
     29 C         142.2213  143.2366  170.2794 C.3     1  UNL1        0.0028
     30 C         142.4749  142.2754  169.1562 C.3     1  UNL1        0.0160
@<TRIPOS>BOND
     1     7     8    1
     2     8     9   ar
     3     9    10   ar
     4    10    11   ar
     5    11    12   ar
     6    12    13   ar
     7    13    14   ar
     8    14    15    1
     9    14    16   ar
    10    16    17   ar
    11    17    18    2
    12    17    19   ar
    13    19     1    1
    14     1     2   ar
    15     2     3   ar
    16     3     4   ar
    17     4    20    1
    18    20    21    1
    19    21    22    1
    20    22    23    1
    21    23    24    1
    22    24    27    1
    23    27    28    1
    24    28    29    1
    25    29    30    1
    26    24    25    1
    27    25    26    1
    28     4     5   ar
    29     5     6   ar
    30    19     8   ar
    31     6     1   ar
    32    16    10   ar
    33    26    21    1
    34    30    27    1
@<TRIPOS>MOLECULE
*****
 30 34 0 0 0
SMALL
GASTEIGER

@<TRIPOS>ATOM
      1 C         142.7074  140.9462  159.0921 C.ar    1  UNL1        0.0681
      2 C         143.7262  140.8001  158.0009 C.ar    1  UNL1        0.0208
      3 C         143.4654  139.8736  156.8505 C.ar    1  UNL1        0.0384
      4 C         142.1858  139.0931  156.7913 C.ar    1  UNL1        0.1385
      5 C         141.1671  139.2392  157.8825 C.ar    1  UNL1        0.0384
      6 C         141.4279  140.1657  159.0329 C.ar    1  UNL1        0.0208
      7 C         141.8713  143.8222  158.9211 C.3     1  UNL1        0.0723
      8 C         142.5502  143.3108  160.1571 C.ar    1  UNL1        0.1268
      9 N         142.8110  144.2373  161.3074 N.ar    1  UNL1       -0.2318
     10 C         143.4899  143.7259  162.5434 C.ar    1  UNL1        0.0880
     11 C         143.7507  144.6525  163.6938 C.ar    1  UNL1        0.0194
     12 C         144.4296  144.1410  164.9297 C.ar    1  UNL1        0.0024
     13 C         144.8477  142.7030  165.0152 C.ar    1  UNL1        0.0116
     14 C         144.5869  141.7764  163.8648 C.ar    1  UNL1        0.0637
     15 CL        145.0050  140.3384  163.9503 Cl      1  UNL1       -0.0820
     16 C         143.9080  142.2879  162.6289 C.ar    1  UNL1        0.0847
     17 C         143.6471  141.3613  161.4785 C.ar    1  UNL1        0.2678
     18 O         144.0652  139.9233  161.5640 O.2     1  UNL1       -0.2665
     19 N         142.9683  141.8728  160.2426 N.ar    1  UNL1       -0.2626
     20 O         141.9250  138.1666  155.6408 O.3     1  UNL1       -0.4791
     21 C         142.4528  136.7629  155.6738 C.3     1  UNL1        0.1687
     22 C         143.0343  136.2099  156.9411 C.3     1  UNL1        0.0609
     23 C         143.5621  134.8062  156.9741 C.3     1  UNL1        0.0758
     24 N         143.5085  133.9556  155.7397 N.3     1  UNL1       -0.2737
     25 C         142.9271  134.5086  154.4725 C.3     1  UNL1        0.0758
     26 C         142.3992  135.9123  154.4395 C.3     1  UNL1        0.0609
     27 C         144.0363  132.5519  155.7727 C.3     1  UNL1        0.0575
     28 C         143.9112  131.3504  154.8833 C.3     1  UNL1        0.0160
     29 C         144.7828  130.5668  155.8193 C.3     1  UNL1        0.0028
     30 C         144.9080  131.7681  156.7086 C.3     1  UNL1        0.0160
@<TRIPOS>BOND
     1     7     8    1
     2     8     9   ar
     3     9    10   ar
     4    10    11   ar
     5    11    12   ar
     6    12    13   ar
     7    13    14   ar
     8    14    15    1
     9    14    16   ar
    10    16    17   ar
    11    17    18    2
    12    17    19   ar
    13    19     1    1
    14     1     2   ar
    15     2     3   ar
    16     3     4   ar
    17     4    20    1
    18    20    21    1
    19    21    22    1
    20    22    23    1
    21    23    24    1
    22    24    27    1
    23    27    28    1
    24    28    29    1
    25    29    30    1
    26    24    25    1
    27    25    26    1
    28     4     5   ar
    29     5     6   ar
    30    19     8   ar
    31     6     1   ar
    32    16    10   ar
    33    26    21    1
    34    30    27    1
