@<TRIPOS>MOLECULE
*****
 35 38 0 0 0
SMALL
GASTEIGER

@<TRIPOS>ATOM
      1 C         143.1440  139.9355  170.6062 C.3     1  UNL1        0.0343
      2 C         142.3624  141.0195  169.9250 C.ar    1  UNL1        0.0160
      3 C         141.8245  142.1705  170.7223 C.ar    1  UNL1        0.1298
      4 O         142.0682  142.2376  172.2009 O.3     1  UNL1       -0.5058
      5 C         141.0429  143.2545  170.0411 C.ar    1  UNL1        0.0360
      6 C         140.7992  143.1875  168.5626 C.ar    1  UNL1        0.0010
      7 C         141.3371  142.0365  167.7653 C.ar    1  UNL1        0.0088
      8 C         142.1187  140.9525  168.4465 C.ar    1  UNL1        0.0506
      9 C         142.5218  139.9487  167.4073 C.2     1  UNL1        0.2493
     10 O         143.3177  138.7004  167.6492 O.2     1  UNL1       -0.2699
     11 N         141.9893  140.4122  166.0838 N.am    1  UNL1       -0.2620
     12 C         141.2572  141.7026  166.3051 C.3     1  UNL1        0.1753
     13 H         142.5564  141.5605  172.6265 H       1  UNL1        0.2922
     14 C         140.5663  142.5162  165.2512 C.2     1  UNL1        0.2448
     15 O         141.3737  143.3029  164.2618 O.2     1  UNL1       -0.2729
     16 N         139.0678  142.5431  165.1867 N.am    1  UNL1       -0.3059
     17 H         138.5378  142.0267  165.8361 H       1  UNL1        0.1494
     18 C         138.3770  143.3567  164.1328 C.3     1  UNL1        0.0569
     19 C         138.3492  142.1607  163.2278 C.3     1  UNL1        0.0196
     20 C         138.4048  144.5526  165.0378 C.3     1  UNL1        0.0196
     21 C         137.6861  144.1703  163.0790 C.3     1  UNL1        0.0196
     22 C         142.1592  139.7090  164.7699 C.3     1  UNL1        0.1212
     23 C         140.9892  139.0225  164.1298 C.ar    1  UNL1       -0.0023
     24 C         140.0067  138.2688  164.9765 C.ar    1  UNL1       -0.0026
     25 C         138.8367  137.5823  164.3365 C.ar    1  UNL1       -0.0003
     26 C         138.6490  137.6494  162.8498 C.ar    1  UNL1       -0.0000
     27 C         139.6314  138.4030  162.0031 C.ar    1  UNL1       -0.0003
     28 C         140.8015  139.0896  162.6431 C.ar    1  UNL1       -0.0024
     29 C         141.7839  139.8432  161.7964 C.ar    1  UNL1       -0.0001
     30 C         142.9961  139.1460  161.2537 C.ar    1  UNL1        0.0023
     31 C         143.9785  139.8996  160.4070 C.ar    1  UNL1        0.0296
     32 C         143.7487  141.3505  160.1030 C.ar    1  UNL1        0.1401
     33 F         144.7311  142.1041  159.2563 F       1  UNL1       -0.2042
     34 C         142.5365  142.0476  160.6458 C.ar    1  UNL1        0.0296
     35 C         141.5541  141.2939  161.4925 C.ar    1  UNL1        0.0023
@<TRIPOS>BOND
     1     1     2    1
     2     2     3   ar
     3     3     4    1
     4     3     5   ar
     5     5     6   ar
     6     6     7   ar
     7     7     8   ar
     8     8     9    1
     9     9    10    2
    10     9    11   am
    11    11    22    1
    12    22    23    1
    13    23    24   ar
    14    24    25   ar
    15    25    26   ar
    16    26    27   ar
    17    27    28   ar
    18    28    29    1
    19    29    30   ar
    20    30    31   ar
    21    31    32   ar
    22    32    33    1
    23    32    34   ar
    24    34    35   ar
    25    11    12    1
    26    12    14    1
    27    14    15    2
    28    14    16   am
    29    16    18    1
    30    18    19    1
    31    18    20    1
    32    18    21    1
    33     8     2   ar
    34    28    23   ar
    35    35    29   ar
    36    12     7    1
    37     4    13    1
    38    16    17    1
@<TRIPOS>MOLECULE
*****
 35 38 0 0 0
SMALL
GASTEIGER

@<TRIPOS>ATOM
      1 C         140.3344  145.3479  160.2105 C.3     1  UNL1        0.0343
      2 C         141.4114  144.3932  160.6332 C.ar    1  UNL1        0.0160
      3 C         142.5089  144.0298  159.6776 C.ar    1  UNL1        0.1298
      4 O         142.5295  144.6212  158.2992 O.3     1  UNL1       -0.5058
      5 C         143.5859  143.0751  160.1003 C.ar    1  UNL1        0.0360
      6 C         143.5653  142.4838  161.4786 C.ar    1  UNL1        0.0010
      7 C         142.4678  142.8472  162.4343 C.ar    1  UNL1        0.0088
      8 C         141.3908  143.8019  162.0116 C.ar    1  UNL1        0.0506
      9 C         140.4440  143.9717  163.1626 C.2     1  UNL1        0.2493
     10 O         139.2203  144.8391  163.1770 O.2     1  UNL1       -0.2699
     11 N         140.9358  143.1220  164.2966 N.am    1  UNL1       -0.2620
     12 C         142.1866  142.4270  163.8465 C.3     1  UNL1        0.1753
     13 H         141.8568  145.2175  158.0351 H       1  UNL1        0.2922
     14 C         143.0113  141.4784  164.6649 C.2     1  UNL1        0.2448
     15 O         143.9807  142.0098  165.6787 O.2     1  UNL1       -0.2729
     16 N         142.8667  139.9981  164.4695 N.am    1  UNL1       -0.3059
     17 H         142.2305  139.6493  163.8041 H       1  UNL1        0.1494
     18 C         143.6915  139.0495  165.2879 C.3     1  UNL1        0.0569
     19 C         142.5071  138.7787  166.1676 C.3     1  UNL1        0.0196
     20 C         144.8759  139.3202  164.4082 C.3     1  UNL1        0.0196
     21 C         144.5162  138.1008  166.1063 C.3     1  UNL1        0.0196
     22 C         140.2903  142.9904  165.6442 C.3     1  UNL1        0.1212
     23 C         139.6551  141.6930  166.0481 C.ar    1  UNL1       -0.0023
     24 C         138.7414  140.9773  165.0978 C.ar    1  UNL1       -0.0026
     25 C         138.1063  139.6799  165.5016 C.ar    1  UNL1       -0.0003
     26 C         138.3849  139.0979  166.8558 C.ar    1  UNL1       -0.0000
     27 C         139.2986  139.8135  167.8061 C.ar    1  UNL1       -0.0003
     28 C         139.9337  141.1110  167.4022 C.ar    1  UNL1       -0.0024
     29 C         140.8475  141.8266  168.3525 C.ar    1  UNL1       -0.0001
     30 C         142.2945  141.4403  168.4359 C.ar    1  UNL1        0.0023
     31 C         143.2082  142.1558  169.3862 C.ar    1  UNL1        0.0296
     32 C         142.6749  143.2577  170.2531 C.ar    1  UNL1        0.1401
     33 F         143.5886  143.9732  171.2034 F       1  UNL1       -0.2042
     34 C         141.2279  143.6440  170.1698 C.ar    1  UNL1        0.0296
     35 C         140.3142  142.9284  169.2194 C.ar    1  UNL1        0.0023
@<TRIPOS>BOND
     1     1     2    1
     2     2     3   ar
     3     3     4    1
     4     3     5   ar
     5     5     6   ar
     6     6     7   ar
     7     7     8   ar
     8     8     9    1
     9     9    10    2
    10     9    11   am
    11    11    22    1
    12    22    23    1
    13    23    24   ar
    14    24    25   ar
    15    25    26   ar
    16    26    27   ar
    17    27    28   ar
    18    28    29    1
    19    29    30   ar
    20    30    31   ar
    21    31    32   ar
    22    32    33    1
    23    32    34   ar
    24    34    35   ar
    25    11    12    1
    26    12    14    1
    27    14    15    2
    28    14    16   am
    29    16    18    1
    30    18    19    1
    31    18    20    1
    32    18    21    1
    33     8     2   ar
    34    28    23   ar
    35    35    29   ar
    36    12     7    1
    37     4    13    1
    38    16    17    1
@<TRIPOS>MOLECULE
*****
 35 38 0 0 0
SMALL
GASTEIGER

@<TRIPOS>ATOM
      1 C         140.0628  142.6369  170.0080 C.3     1  UNL1        0.0343
      2 C         140.8930  141.5132  169.4620 C.ar    1  UNL1        0.0160
      3 C         141.3946  140.4372  170.3788 C.ar    1  UNL1        0.1298
      4 O         141.0661  140.4848  171.8416 O.3     1  UNL1       -0.5058
      5 C         142.2248  139.3135  169.8327 C.ar    1  UNL1        0.0360
      6 C         142.5533  139.2658  168.3700 C.ar    1  UNL1        0.0010
      7 C         142.0517  140.3418  167.4532 C.ar    1  UNL1        0.0088
      8 C         141.2215  141.4655  167.9992 C.ar    1  UNL1        0.0506
      9 C         140.8699  142.3774  166.8613 C.2     1  UNL1        0.2493
     10 O         140.0495  143.6296  166.9561 O.2     1  UNL1       -0.2699
     11 N         141.4828  141.8173  165.6120 N.am    1  UNL1       -0.2620
     12 C         142.2131  140.5593  165.9779 C.3     1  UNL1        0.1753
     13 H         140.5475  141.1868  172.1827 H       1  UNL1        0.2922
     14 C         142.9718  139.6740  165.0341 C.2     1  UNL1        0.2448
     15 O         144.0387  138.7591  165.5578 O.2     1  UNL1       -0.2729
     16 N         142.6635  139.7038  163.5663 N.am    1  UNL1       -0.3059
     17 H         141.9632  140.3043  163.2225 H       1  UNL1        0.1494
     18 C         143.4222  138.8185  162.6225 C.3     1  UNL1        0.0569
     19 C         142.3700  137.7596  162.7701 C.3     1  UNL1        0.0196
     20 C         144.4742  139.8775  162.4749 C.3     1  UNL1        0.0196
     21 C         144.1808  137.9333  161.6787 C.3     1  UNL1        0.0196
     22 C         141.3828  142.4111  164.2382 C.3     1  UNL1        0.1212
     23 C         140.1109  143.0731  163.7979 C.ar    1  UNL1       -0.0023
     24 C         140.1215  144.5126  163.3762 C.ar    1  UNL1       -0.0026
     25 C         138.8496  145.1746  162.9360 C.ar    1  UNL1       -0.0003
     26 C         137.5669  144.3971  162.9174 C.ar    1  UNL1       -0.0000
     27 C         137.5562  142.9577  163.3391 C.ar    1  UNL1       -0.0003
     28 C         138.8282  142.2956  163.7794 C.ar    1  UNL1       -0.0024
     29 C         138.8175  140.8562  164.2010 C.ar    1  UNL1       -0.0001
     30 C         139.1503  139.7815  163.2089 C.ar    1  UNL1        0.0023
     31 C         139.1396  138.3421  163.6306 C.ar    1  UNL1        0.0296
     32 C         138.7960  137.9772  165.0445 C.ar    1  UNL1        0.1401
     33 F         138.7853  136.5378  165.4661 F       1  UNL1       -0.2042
     34 C         138.4632  139.0519  166.0366 C.ar    1  UNL1        0.0296
     35 C         138.4739  140.4914  165.6148 C.ar    1  UNL1        0.0023
@<TRIPOS>BOND
     1     1     2    1
     2     2     3   ar
     3     3     4    1
     4     3     5   ar
     5     5     6   ar
     6     6     7   ar
     7     7     8   ar
     8     8     9    1
     9     9    10    2
    10     9    11   am
    11    11    22    1
    12    22    23    1
    13    23    24   ar
    14    24    25   ar
    15    25    26   ar
    16    26    27   ar
    17    27    28   ar
    18    28    29    1
    19    29    30   ar
    20    30    31   ar
    21    31    32   ar
    22    32    33    1
    23    32    34   ar
    24    34    35   ar
    25    11    12    1
    26    12    14    1
    27    14    15    2
    28    14    16   am
    29    16    18    1
    30    18    19    1
    31    18    20    1
    32    18    21    1
    33     8     2   ar
    34    28    23   ar
    35    35    29   ar
    36    12     7    1
    37     4    13    1
    38    16    17    1
@<TRIPOS>MOLECULE
*****
 35 38 0 0 0
SMALL
GASTEIGER

@<TRIPOS>ATOM
      1 C         139.9041  139.6191  170.7108 C.3     1  UNL1        0.0343
      2 C         140.9823  140.3671  169.9842 C.ar    1  UNL1        0.0160
      3 C         142.1506  140.9238  170.7426 C.ar    1  UNL1        0.1298
      4 O         142.2407  140.7325  172.2277 O.3     1  UNL1       -0.5058
      5 C         143.2288  141.6718  170.0160 C.ar    1  UNL1        0.0360
      6 C         143.1387  141.8632  168.5310 C.ar    1  UNL1        0.0010
      7 C         141.9704  141.3065  167.7726 C.ar    1  UNL1        0.0088
      8 C         140.8922  140.5584  168.4992 C.ar    1  UNL1        0.0506
      9 C         139.8681  140.1267  167.4919 C.2     1  UNL1        0.2493
     10 O         138.6182  139.3500  167.7827 O.2     1  UNL1       -0.2699
     11 N         140.3133  140.6078  166.1427 N.am    1  UNL1       -0.2620
     12 C         141.6126  141.3370  166.3162 C.3     1  UNL1        0.1753
     13 H         141.5672  140.2652  172.6816 H       1  UNL1        0.2922
     14 C         142.4135  141.9832  165.2250 C.2     1  UNL1        0.2448
     15 O         143.2760  141.1437  164.3299 O.2     1  UNL1       -0.2729
     16 N         142.3519  143.4691  165.0288 N.am    1  UNL1       -0.3059
     17 H         141.7859  144.0202  165.6163 H       1  UNL1        0.1494
     18 C         143.1529  144.1154  163.9375 C.3     1  UNL1        0.0569
     19 C         141.9388  144.1323  163.0566 C.3     1  UNL1        0.0196
     20 C         144.3668  144.0984  164.8184 C.3     1  UNL1        0.0196
     21 C         143.9537  144.7616  162.8462 C.3     1  UNL1        0.0196
     22 C         139.5867  140.3969  164.8475 C.3     1  UNL1        0.1212
     23 C         138.9963  141.5678  164.1194 C.ar    1  UNL1       -0.0023
     24 C         138.2274  142.6108  164.8751 C.ar    1  UNL1       -0.0026
     25 C         137.6370  143.7818  164.1470 C.ar    1  UNL1       -0.0003
     26 C         137.8155  143.9099  162.6632 C.ar    1  UNL1       -0.0000
     27 C         138.5844  142.8670  161.9074 C.ar    1  UNL1       -0.0003
     28 C         139.1748  141.6959  162.6356 C.ar    1  UNL1       -0.0024
     29 C         139.9437  140.6531  161.8798 C.ar    1  UNL1       -0.0001
     30 C         139.2664  139.3849  161.4520 C.ar    1  UNL1        0.0023
     31 C         140.0353  138.3421  160.6963 C.ar    1  UNL1        0.0296
     32 C         141.4816  138.5673  160.3684 C.ar    1  UNL1        0.1401
     33 F         142.2505  137.5244  159.6127 F       1  UNL1       -0.2042
     34 C         142.1590  139.8354  160.7962 C.ar    1  UNL1        0.0296
     35 C         141.3900  140.8783  161.5520 C.ar    1  UNL1        0.0023
@<TRIPOS>BOND
     1     1     2    1
     2     2     3   ar
     3     3     4    1
     4     3     5   ar
     5     5     6   ar
     6     6     7   ar
     7     7     8   ar
     8     8     9    1
     9     9    10    2
    10     9    11   am
    11    11    22    1
    12    22    23    1
    13    23    24   ar
    14    24    25   ar
    15    25    26   ar
    16    26    27   ar
    17    27    28   ar
    18    28    29    1
    19    29    30   ar
    20    30    31   ar
    21    31    32   ar
    22    32    33    1
    23    32    34   ar
    24    34    35   ar
    25    11    12    1
    26    12    14    1
    27    14    15    2
    28    14    16   am
    29    16    18    1
    30    18    19    1
    31    18    20    1
    32    18    21    1
    33     8     2   ar
    34    28    23   ar
    35    35    29   ar
    36    12     7    1
    37     4    13    1
    38    16    17    1
@<TRIPOS>MOLECULE
*****
 35 38 0 0 0
SMALL
GASTEIGER

@<TRIPOS>ATOM
      1 C         143.8982  142.3560  169.8355 C.3     1  UNL1        0.0343
      2 C         142.7281  141.5135  169.4218 C.ar    1  UNL1        0.0160
      3 C         142.0070  140.6800  170.4392 C.ar    1  UNL1        0.1298
      4 O         142.4561  140.6889  171.8705 O.3     1  UNL1       -0.5058
      5 C         140.8369  139.8376  170.0255 C.ar    1  UNL1        0.0360
      6 C         140.3879  139.8287  168.5944 C.ar    1  UNL1        0.0010
      7 C         141.1089  140.6622  167.5769 C.ar    1  UNL1        0.0088
      8 C         142.2790  141.5046  167.9906 C.ar    1  UNL1        0.0506
      9 C         142.7900  142.2178  166.7739 C.2     1  UNL1        0.2493
     10 O         143.9513  143.1661  166.7305 O.2     1  UNL1       -0.2699
     11 N         141.9356  141.8161  165.6082 N.am    1  UNL1       -0.2620
     12 C         140.8967  140.8547  166.1046 C.3     1  UNL1        0.1753
     13 H         143.1870  141.2151  172.1289 H       1  UNL1        0.2922
     14 C         139.8324  140.2007  165.2743 C.2     1  UNL1        0.2448
     15 O         138.4429  140.0504  165.8188 O.2     1  UNL1       -0.2729
     16 N         140.1576  139.6968  163.8993 N.am    1  UNL1       -0.3059
     17 H         141.0696  139.7954  163.5418 H       1  UNL1        0.1494
     18 C         139.0933  139.0427  163.0690 C.3     1  UNL1        0.0569
     19 C         139.5284  137.6978  163.5709 C.3     1  UNL1        0.0196
     20 C         138.6582  140.3877  162.5671 C.3     1  UNL1        0.0196
     21 C         138.0290  138.3887  162.2387 C.3     1  UNL1        0.0196
     22 C         142.0927  142.2922  164.1945 C.3     1  UNL1        0.1212
     23 C         141.1016  143.2566  163.6134 C.ar    1  UNL1       -0.0023
     24 C         140.2000  144.0422  164.5190 C.ar    1  UNL1       -0.0026
     25 C         139.2089  145.0066  163.9379 C.ar    1  UNL1       -0.0003
     26 C         139.1194  145.1855  162.4513 C.ar    1  UNL1       -0.0000
     27 C         140.0210  144.4000  161.5458 C.ar    1  UNL1       -0.0003
     28 C         141.0121  143.4355  162.1268 C.ar    1  UNL1       -0.0024
     29 C         141.9137  142.6500  161.2213 C.ar    1  UNL1       -0.0001
     30 C         143.2475  143.2085  160.8225 C.ar    1  UNL1        0.0023
     31 C         144.1491  142.4230  159.9169 C.ar    1  UNL1        0.0296
     32 C         143.7169  141.0789  159.4102 C.ar    1  UNL1        0.1401
     33 F         144.6185  140.2933  158.5046 F       1  UNL1       -0.2042
     34 C         142.3831  140.5204  159.8090 C.ar    1  UNL1        0.0296
     35 C         141.4815  141.3060  160.7146 C.ar    1  UNL1        0.0023
@<TRIPOS>BOND
     1     1     2    1
     2     2     3   ar
     3     3     4    1
     4     3     5   ar
     5     5     6   ar
     6     6     7   ar
     7     7     8   ar
     8     8     9    1
     9     9    10    2
    10     9    11   am
    11    11    22    1
    12    22    23    1
    13    23    24   ar
    14    24    25   ar
    15    25    26   ar
    16    26    27   ar
    17    27    28   ar
    18    28    29    1
    19    29    30   ar
    20    30    31   ar
    21    31    32   ar
    22    32    33    1
    23    32    34   ar
    24    34    35   ar
    25    11    12    1
    26    12    14    1
    27    14    15    2
    28    14    16   am
    29    16    18    1
    30    18    19    1
    31    18    20    1
    32    18    21    1
    33     8     2   ar
    34    28    23   ar
    35    35    29   ar
    36    12     7    1
    37     4    13    1
    38    16    17    1
@<TRIPOS>MOLECULE
*****
 35 38 0 0 0
SMALL
GASTEIGER

@<TRIPOS>ATOM
      1 C         140.3922  143.6843  169.5741 C.3     1  UNL1        0.0343
      2 C         141.1594  142.4814  169.1111 C.ar    1  UNL1        0.0160
      3 C         142.0043  141.7113  170.0821 C.ar    1  UNL1        0.1298
      4 O         142.0821  142.1440  171.5163 O.3     1  UNL1       -0.5058
      5 C         142.7716  140.5084  169.6191 C.ar    1  UNL1        0.0360
      6 C         142.6939  140.0756  168.1850 C.ar    1  UNL1        0.0010
      7 C         141.8490  140.8457  167.2140 C.ar    1  UNL1        0.0088
      8 C         141.0818  142.0486  167.6770 C.ar    1  UNL1        0.0506
      9 C         140.3381  142.6056  166.4994 C.2     1  UNL1        0.2493
     10 O         139.4438  143.8098  166.5107 O.2     1  UNL1       -0.2699
     11 N         140.6457  141.7469  165.3086 N.am    1  UNL1       -0.2620
     12 C         141.5795  140.6593  165.7502 C.3     1  UNL1        0.1753
     13 H         141.6028  142.8954  171.8056 H       1  UNL1        0.2922
     14 C         142.1446  139.5755  164.8807 C.2     1  UNL1        0.2448
     15 O         142.1657  138.1572  165.3684 O.2     1  UNL1       -0.2729
     16 N         142.6886  139.9100  163.5234 N.am    1  UNL1       -0.3059
     17 H         142.6748  140.8409  163.2033 H       1  UNL1        0.1494
     18 C         143.2537  138.8261  162.6539 C.3     1  UNL1        0.0569
     19 C         144.5612  138.9233  163.3828 C.3     1  UNL1        0.0196
     20 C         141.9463  138.7290  161.9252 C.3     1  UNL1        0.0196
     21 C         143.8188  137.7424  161.7845 C.3     1  UNL1        0.0196
     22 C         140.1130  141.9417  163.9199 C.3     1  UNL1        0.1212
     23 C         139.9497  143.3263  163.3666 C.ar    1  UNL1       -0.0023
     24 C         138.5793  143.9178  163.2178 C.ar    1  UNL1       -0.0026
     25 C         138.4160  145.3024  162.6645 C.ar    1  UNL1       -0.0003
     26 C         139.6231  146.0956  162.2600 C.ar    1  UNL1       -0.0000
     27 C         140.9936  145.5042  162.4088 C.ar    1  UNL1       -0.0003
     28 C         141.1569  144.1195  162.9621 C.ar    1  UNL1       -0.0024
     29 C         142.5273  143.5282  163.1109 C.ar    1  UNL1       -0.0001
     30 C         143.2079  143.5394  164.4476 C.ar    1  UNL1        0.0023
     31 C         144.5784  142.9480  164.5963 C.ar    1  UNL1        0.0296
     32 C         145.2682  142.3453  163.4084 C.ar    1  UNL1        0.1401
     33 F         146.6386  141.7540  163.5572 F       1  UNL1       -0.2042
     34 C         144.5876  142.3341  162.0718 C.ar    1  UNL1        0.0296
     35 C         143.2171  142.9256  161.9231 C.ar    1  UNL1        0.0023
@<TRIPOS>BOND
     1     1     2    1
     2     2     3   ar
     3     3     4    1
     4     3     5   ar
     5     5     6   ar
     6     6     7   ar
     7     7     8   ar
     8     8     9    1
     9     9    10    2
    10     9    11   am
    11    11    22    1
    12    22    23    1
    13    23    24   ar
    14    24    25   ar
    15    25    26   ar
    16    26    27   ar
    17    27    28   ar
    18    28    29    1
    19    29    30   ar
    20    30    31   ar
    21    31    32   ar
    22    32    33    1
    23    32    34   ar
    24    34    35   ar
    25    11    12    1
    26    12    14    1
    27    14    15    2
    28    14    16   am
    29    16    18    1
    30    18    19    1
    31    18    20    1
    32    18    21    1
    33     8     2   ar
    34    28    23   ar
    35    35    29   ar
    36    12     7    1
    37     4    13    1
    38    16    17    1
@<TRIPOS>MOLECULE
*****
 35 38 0 0 0
SMALL
GASTEIGER

@<TRIPOS>ATOM
      1 C         140.0585  139.5337  170.8811 C.3     1  UNL1        0.0343
      2 C         141.0238  140.3776  170.1027 C.ar    1  UNL1        0.0160
      3 C         142.2822  140.8710  170.7530 C.ar    1  UNL1        0.1298
      4 O         142.5754  140.5205  172.1817 O.3     1  UNL1       -0.5058
      5 C         143.2476  141.7150  169.9746 C.ar    1  UNL1        0.0360
      6 C         142.9545  142.0655  168.5459 C.ar    1  UNL1        0.0010
      7 C         141.6961  141.5722  167.8956 C.ar    1  UNL1        0.0088
      8 C         140.7307  140.7282  168.6740 C.ar    1  UNL1        0.0506
      9 C         139.5805  140.3890  167.7729 C.2     1  UNL1        0.2493
     10 O         138.3856  139.5609  168.1424 O.2     1  UNL1       -0.2699
     11 N         139.8349  141.0233  166.4377 N.am    1  UNL1       -0.2620
     12 C         141.1424  141.7545  166.5135 C.3     1  UNL1        0.1753
     13 H         141.9724  139.9933  172.6680 H       1  UNL1        0.2922
     14 C         141.7837  142.5317  165.4023 C.2     1  UNL1        0.2448
     15 O         141.1066  143.7519  164.8525 O.2     1  UNL1       -0.2729
     16 N         143.1022  142.0885  164.8409 N.am    1  UNL1       -0.3059
     17 H         143.5467  141.2876  165.2017 H       1  UNL1        0.1494
     18 C         143.7435  142.8657  163.7297 C.3     1  UNL1        0.0569
     19 C         144.1229  143.9429  164.7022 C.3     1  UNL1        0.0196
     20 C         143.3641  141.7885  162.7573 C.3     1  UNL1        0.0196
     21 C         144.3848  143.6429  162.6186 C.3     1  UNL1        0.0196
     22 C         138.9391  140.9408  165.2374 C.3     1  UNL1        0.1212
     23 C         139.2712  140.0006  164.1168 C.ar    1  UNL1       -0.0023
     24 C         139.3632  138.5262  164.3772 C.ar    1  UNL1       -0.0026
     25 C         139.6954  137.5860  163.2567 C.ar    1  UNL1       -0.0003
     26 C         139.9355  138.1201  161.8757 C.ar    1  UNL1       -0.0000
     27 C         139.8435  139.5945  161.6153 C.ar    1  UNL1       -0.0003
     28 C         139.5114  140.5347  162.7359 C.ar    1  UNL1       -0.0024
     29 C         139.4194  142.0091  162.4754 C.ar    1  UNL1       -0.0001
     30 C         138.2709  142.7985  163.0302 C.ar    1  UNL1        0.0023
     31 C         138.1789  144.2728  162.7698 C.ar    1  UNL1        0.0296
     32 C         139.2355  144.9578  161.9546 C.ar    1  UNL1        0.1401
     33 F         139.1435  146.4321  161.6941 F       1  UNL1       -0.2042
     34 C         140.3840  144.1684  161.3998 C.ar    1  UNL1        0.0296
     35 C         140.4760  142.6940  161.6603 C.ar    1  UNL1        0.0023
@<TRIPOS>BOND
     1     1     2    1
     2     2     3   ar
     3     3     4    1
     4     3     5   ar
     5     5     6   ar
     6     6     7   ar
     7     7     8   ar
     8     8     9    1
     9     9    10    2
    10     9    11   am
    11    11    22    1
    12    22    23    1
    13    23    24   ar
    14    24    25   ar
    15    25    26   ar
    16    26    27   ar
    17    27    28   ar
    18    28    29    1
    19    29    30   ar
    20    30    31   ar
    21    31    32   ar
    22    32    33    1
    23    32    34   ar
    24    34    35   ar
    25    11    12    1
    26    12    14    1
    27    14    15    2
    28    14    16   am
    29    16    18    1
    30    18    19    1
    31    18    20    1
    32    18    21    1
    33     8     2   ar
    34    28    23   ar
    35    35    29   ar
    36    12     7    1
    37     4    13    1
    38    16    17    1
@<TRIPOS>MOLECULE
*****
 35 38 0 0 0
SMALL
GASTEIGER

@<TRIPOS>ATOM
      1 C         142.8651  142.4022  160.1724 C.3     1  UNL1        0.0343
      2 C         143.3268  142.1341  161.5741 C.ar    1  UNL1        0.0160
      3 C         144.7841  142.2324  161.9154 C.ar    1  UNL1        0.1298
      4 O         145.7798  142.5989  160.8550 O.3     1  UNL1       -0.5058
      5 C         145.2459  141.9643  163.3172 C.ar    1  UNL1        0.0360
      6 C         144.2503  141.5978  164.3776 C.ar    1  UNL1        0.0010
      7 C         142.7930  141.4995  164.0363 C.ar    1  UNL1        0.0088
      8 C         142.3313  141.7677  162.6345 C.ar    1  UNL1        0.0506
      9 C         140.8417  141.5953  162.5962 C.2     1  UNL1        0.2493
     10 O         139.9649  141.7674  161.3914 O.2     1  UNL1       -0.2699
     11 N         140.3828  141.2207  163.9743 N.am    1  UNL1       -0.2620
     12 C         141.5888  141.1615  164.8643 C.3     1  UNL1        0.1753
     13 H         145.4914  142.7664  159.9794 H       1  UNL1        0.2922
     14 C         141.5903  140.8235  166.3257 C.2     1  UNL1        0.2448
     15 O         141.5991  139.3891  166.7638 O.2     1  UNL1       -0.2729
     16 N         141.5831  141.9203  167.3491 N.am    1  UNL1       -0.3059
     17 H         141.5774  142.8618  167.0616 H       1  UNL1        0.1494
     18 C         141.5846  141.5823  168.8106 C.3     1  UNL1        0.0569
     19 C         140.0872  141.4968  168.7923 C.3     1  UNL1        0.0196
     20 C         143.0821  141.6679  168.8288 C.3     1  UNL1        0.0196
     21 C         141.5862  141.2444  170.2719 C.3     1  UNL1        0.0196
     22 C         138.9666  140.9524  164.3895 C.3     1  UNL1        0.1212
     23 C         138.6211  139.6744  165.0947 C.ar    1  UNL1       -0.0023
     24 C         137.9498  139.7154  166.4355 C.ar    1  UNL1       -0.0026
     25 C         137.6043  138.4374  167.1407 C.ar    1  UNL1       -0.0003
     26 C         137.9300  137.1183  166.5051 C.ar    1  UNL1       -0.0000
     27 C         138.6013  137.0773  165.1643 C.ar    1  UNL1       -0.0003
     28 C         138.9468  138.3553  164.4591 C.ar    1  UNL1       -0.0024
     29 C         139.6181  138.3142  163.1183 C.ar    1  UNL1       -0.0001
     30 C         141.0990  138.0941  163.0275 C.ar    1  UNL1        0.0023
     31 C         141.7703  138.0530  161.6867 C.ar    1  UNL1        0.0296
     32 C         140.9606  138.2321  160.4367 C.ar    1  UNL1        0.1401
     33 F         141.6319  138.1910  159.0960 F       1  UNL1       -0.2042
     34 C         139.4796  138.4522  160.5276 C.ar    1  UNL1        0.0296
     35 C         138.8084  138.4933  161.8684 C.ar    1  UNL1        0.0023
@<TRIPOS>BOND
     1     1     2    1
     2     2     3   ar
     3     3     4    1
     4     3     5   ar
     5     5     6   ar
     6     6     7   ar
     7     7     8   ar
     8     8     9    1
     9     9    10    2
    10     9    11   am
    11    11    22    1
    12    22    23    1
    13    23    24   ar
    14    24    25   ar
    15    25    26   ar
    16    26    27   ar
    17    27    28   ar
    18    28    29    1
    19    29    30   ar
    20    30    31   ar
    21    31    32   ar
    22    32    33    1
    23    32    34   ar
    24    34    35   ar
    25    11    12    1
    26    12    14    1
    27    14    15    2
    28    14    16   am
    29    16    18    1
    30    18    19    1
    31    18    20    1
    32    18    21    1
    33     8     2   ar
    34    28    23   ar
    35    35    29   ar
    36    12     7    1
    37     4    13    1
    38    16    17    1
@<TRIPOS>MOLECULE
*****
 35 38 0 0 0
SMALL
GASTEIGER

@<TRIPOS>ATOM
      1 C         144.0111  142.3768  170.1089 C.3     1  UNL1        0.0343
      2 C         142.8564  141.5579  169.6129 C.ar    1  UNL1        0.0160
      3 C         142.0210  140.7752  170.5821 C.ar    1  UNL1        0.1298
      4 O         142.3402  140.8113  172.0474 O.3     1  UNL1       -0.5058
      5 C         140.8662  139.9562  170.0861 C.ar    1  UNL1        0.0360
      6 C         140.5470  139.9200  168.6210 C.ar    1  UNL1        0.0010
      7 C         141.3824  140.7027  167.6518 C.ar    1  UNL1        0.0088
      8 C         142.5371  141.5216  168.1478 C.ar    1  UNL1        0.0506
      9 C         143.1774  142.1846  166.9643 C.2     1  UNL1        0.2493
     10 O         144.3677  143.0966  167.0017 O.2     1  UNL1       -0.2699
     11 N         142.4184  141.7754  165.7369 N.am    1  UNL1       -0.2620
     12 C         141.3091  140.8596  166.1618 C.3     1  UNL1        0.1753
     13 H         143.0615  141.3229  172.3572 H       1  UNL1        0.2922
     14 C         140.3029  140.2139  165.2558 C.2     1  UNL1        0.2448
     15 O         139.1224  140.9987  164.7657 O.2     1  UNL1       -0.2729
     16 N         140.4774  138.7833  164.8399 N.am    1  UNL1       -0.3059
     17 H         141.2522  138.2681  165.1616 H       1  UNL1        0.1494
     18 C         139.4713  138.1376  163.9339 C.3     1  UNL1        0.0569
     19 C         140.2170  138.6528  162.7387 C.3     1  UNL1        0.0196
     20 C         138.7256  137.6224  165.1291 C.3     1  UNL1        0.0196
     21 C         138.4652  137.4920  163.0279 C.3     1  UNL1        0.0196
     22 C         142.7164  142.2064  164.3314 C.3     1  UNL1        0.1212
     23 C         143.0199  141.1800  163.2806 C.ar    1  UNL1       -0.0023
     24 C         143.8110  139.9556  163.6344 C.ar    1  UNL1       -0.0026
     25 C         144.1145  138.9292  162.5835 C.ar    1  UNL1       -0.0003
     26 C         143.6268  139.1271  161.1789 C.ar    1  UNL1       -0.0000
     27 C         142.8356  140.3513  160.8251 C.ar    1  UNL1       -0.0003
     28 C         142.5322  141.3778  161.8760 C.ar    1  UNL1       -0.0024
     29 C         141.7410  142.6021  161.5222 C.ar    1  UNL1       -0.0001
     30 C         140.2722  142.6582  161.8209 C.ar    1  UNL1        0.0023
     31 C         139.4810  143.8825  161.4671 C.ar    1  UNL1        0.0296
     32 C         140.1588  145.0508  160.8145 C.ar    1  UNL1        0.1401
     33 F         139.3677  146.2750  160.4607 F       1  UNL1       -0.2042
     34 C         141.6277  144.9947  160.5158 C.ar    1  UNL1        0.0296
     35 C         142.4188  143.7703  160.8696 C.ar    1  UNL1        0.0023
@<TRIPOS>BOND
     1     1     2    1
     2     2     3   ar
     3     3     4    1
     4     3     5   ar
     5     5     6   ar
     6     6     7   ar
     7     7     8   ar
     8     8     9    1
     9     9    10    2
    10     9    11   am
    11    11    22    1
    12    22    23    1
    13    23    24   ar
    14    24    25   ar
    15    25    26   ar
    16    26    27   ar
    17    27    28   ar
    18    28    29    1
    19    29    30   ar
    20    30    31   ar
    21    31    32   ar
    22    32    33    1
    23    32    34   ar
    24    34    35   ar
    25    11    12    1
    26    12    14    1
    27    14    15    2
    28    14    16   am
    29    16    18    1
    30    18    19    1
    31    18    20    1
    32    18    21    1
    33     8     2   ar
    34    28    23   ar
    35    35    29   ar
    36    12     7    1
    37     4    13    1
    38    16    17    1
