@<TRIPOS>MOLECULE
*****
 34 39 0 0 0
SMALL
GASTEIGER

@<TRIPOS>ATOM
      1 C         143.0312  138.7003  162.0890 C.3     1  UNL1        0.0230
      2 C         141.8232  138.9260  161.2289 C.3     1  UNL1        0.0233
      3 C         140.7785  138.9910  160.1545 C.3     1  UNL1        0.0935
      4 N         141.3065  138.2694  158.9502 N.am    1  UNL1       -0.2795
      5 C         140.5893  138.0902  157.6450 C.2     1  UNL1        0.2255
      6 O         139.2142  138.6603  157.4604 O.2     1  UNL1       -0.2749
      7 C         142.6776  137.7584  159.2802 C.3     1  UNL1        0.0935
      8 C         142.9970  138.1643  160.6885 C.3     1  UNL1        0.0233
      9 C         141.2472  137.3409  156.5244 C.3     1  UNL1        0.0811
     10 C         141.7422  137.2913  155.1093 C.3     1  UNL1        0.0142
     11 C         141.8918  136.0926  155.9987 C.3     1  UNL1        0.0315
     12 C         142.3502  134.6800  156.2085 C.ar    1  UNL1       -0.0203
     13 C         143.5396  134.3989  157.0782 C.ar    1  UNL1        0.0072
     14 C         143.9981  132.9861  157.2881 C.ar    1  UNL1        0.0582
     15 CL        145.1875  132.7050  158.1577 Cl      1  UNL1       -0.0822
     16 C         143.2673  131.8546  156.6283 C.ar    1  UNL1        0.0228
     17 C         142.0778  132.1357  155.7586 C.ar    1  UNL1        0.0582
     18 CL        141.3469  131.0041  155.0988 Cl      1  UNL1       -0.0822
     19 C         141.6193  133.5484  155.5487 C.ar    1  UNL1        0.0072
     20 C         143.7484  138.8795  163.3942 C.3     1  UNL1        0.0898
     21 O         141.5666  137.3115  164.7289 O.2     1  UNL1       -0.2702
     22 C         141.9337  138.6724  165.2420 C.2     1  UNL1        0.2456
     23 N         143.0246  139.4564  164.5747 N.am    1  UNL1       -0.3009
     24 H         143.2655  140.3495  164.9115 H       1  UNL1        0.1497
     25 C         141.2099  139.2492  166.4225 C.2     1  UNL1        0.0525
     26 C         139.7105  139.2373  166.4620 C.2     1  UNL1       -0.0153
     27 C         138.9868  139.8141  167.6424 C.3     1  UNL1        0.0726
     28 C         139.7625  140.4028  168.7833 C.2     1  UNL1        0.0933
     29 N         139.3276  141.0392  170.0703 N.am    1  UNL1       -0.1431
     30 C         140.5583  141.4443  170.8261 C.2     1  UNL1        0.4298
     31 O         140.5884  142.1173  172.1664 O.2     1  UNL1       -0.2238
     32 O         141.7538  141.0584  170.0063 O.3     1  UNL1       -0.4079
     33 C         141.2619  140.4147  168.7438 C.2     1  UNL1        0.1618
     34 C         141.9856  139.8379  167.5634 C.2     1  UNL1        0.0429
@<TRIPOS>BOND
     1    21    22    2
     2    22    23   am
     3    23    20    1
     4     1    20    1
     5     1     2    1
     6     2     3    1
     7     3     4    1
     8     4     5   am
     9     5     6    2
    10     5     9    1
    11     9    10    1
    12    10    11    1
    13    11    12    1
    14    12    13   ar
    15    13    14   ar
    16    14    15    1
    17    14    16   ar
    18    16    17   ar
    19    17    18    1
    20    17    19   ar
    21     4     7    1
    22     8     7    1
    23    22    25    1
    24    25    26    2
    25    26    27    1
    26    27    28    1
    27    28    29    2
    28    29    30    1
    29    30    31    2
    30    30    32    1
    31    32    33    1
    32    33    34    2
    33     8     1    1
    34    34    25    1
    35     8     2    1
    36    33    28    1
    37    11     9    1
    38    19    12   ar
    39    23    24    1
@<TRIPOS>MOLECULE
*****
 34 39 0 0 0
SMALL
GASTEIGER

@<TRIPOS>ATOM
      1 C         140.1726  144.3613  159.9954 C.3     1  UNL1        0.0230
      2 C         139.5733  144.9666  161.2301 C.3     1  UNL1        0.0233
      3 C         139.1047  145.3260  162.6089 C.3     1  UNL1        0.0935
      4 N         139.6049  144.2765  163.5567 N.am    1  UNL1       -0.2795
      5 C         139.3689  144.2412  165.0376 C.2     1  UNL1        0.2255
      6 O         138.5668  145.3249  165.6953 O.2     1  UNL1       -0.2749
      7 C         140.3827  143.2684  162.7637 C.3     1  UNL1        0.0935
      8 C         140.3631  143.6950  161.3257 C.3     1  UNL1        0.0233
      9 C         139.9348  143.1223  165.8608 C.3     1  UNL1        0.0811
     10 C         140.8136  142.6493  166.9806 C.3     1  UNL1        0.0142
     11 C         140.0363  141.6574  166.1670 C.3     1  UNL1        0.0315
     12 C         139.6461  140.2390  165.8740 C.ar    1  UNL1       -0.0203
     13 C         138.5748  139.5730  166.6856 C.ar    1  UNL1        0.0072
     14 C         138.1846  138.1545  166.3927 C.ar    1  UNL1        0.0582
     15 CL        137.1133  137.4885  167.2043 Cl      1  UNL1       -0.0822
     16 C         138.8656  137.4022  165.2881 C.ar    1  UNL1        0.0228
     17 C         139.9370  138.0683  164.4765 C.ar    1  UNL1        0.0582
     18 CL        140.6180  137.3159  163.3719 Cl      1  UNL1       -0.0822
     19 C         140.3271  139.4867  164.7694 C.ar    1  UNL1        0.0072
     20 C         140.4087  144.3966  158.5145 C.3     1  UNL1        0.0898
     21 O         139.0841  144.5489  155.8271 O.2     1  UNL1       -0.2702
     22 C         139.6932  145.7781  156.4337 C.2     1  UNL1        0.2456
     23 N         140.3555  145.7020  157.7774 N.am    1  UNL1       -0.3009
     24 H         140.7553  146.5088  158.1756 H       1  UNL1        0.1497
     25 C         139.6400  147.0835  155.6966 C.2     1  UNL1        0.0525
     26 C         140.2995  147.2151  154.3559 C.2     1  UNL1       -0.0153
     27 C         140.2463  148.5204  153.6189 C.3     1  UNL1        0.0726
     28 C         139.5335  149.6941  154.2226 C.2     1  UNL1        0.0933
     29 N         139.3167  151.0960  153.7350 N.am    1  UNL1       -0.1431
     30 C         138.5232  151.8308  154.7744 C.2     1  UNL1        0.4298
     31 O         138.0809  153.2621  154.6975 O.2     1  UNL1       -0.2238
     32 O         138.2496  150.8829  155.9044 O.3     1  UNL1       -0.4079
     33 C         138.8740  149.5624  155.5633 C.2     1  UNL1        0.1618
     34 C         138.9272  148.2571  156.3003 C.2     1  UNL1        0.0429
@<TRIPOS>BOND
     1    21    22    2
     2    22    23   am
     3    23    20    1
     4     1    20    1
     5     1     2    1
     6     2     3    1
     7     3     4    1
     8     4     5   am
     9     5     6    2
    10     5     9    1
    11     9    10    1
    12    10    11    1
    13    11    12    1
    14    12    13   ar
    15    13    14   ar
    16    14    15    1
    17    14    16   ar
    18    16    17   ar
    19    17    18    1
    20    17    19   ar
    21     4     7    1
    22     8     7    1
    23    22    25    1
    24    25    26    2
    25    26    27    1
    26    27    28    1
    27    28    29    2
    28    29    30    1
    29    30    31    2
    30    30    32    1
    31    32    33    1
    32    33    34    2
    33     8     1    1
    34    34    25    1
    35     8     2    1
    36    33    28    1
    37    11     9    1
    38    19    12   ar
    39    23    24    1
@<TRIPOS>MOLECULE
*****
 34 39 0 0 0
SMALL
GASTEIGER

@<TRIPOS>ATOM
      1 C         143.1190  138.7450  159.5572 C.3     1  UNL1        0.0230
      2 C         143.7748  139.7126  160.4973 C.3     1  UNL1        0.0233
      3 C         144.3008  140.5011  161.6598 C.3     1  UNL1        0.0935
      4 N         143.8176  139.8470  162.9203 N.am    1  UNL1       -0.2795
      5 C         144.1081  140.3053  164.3187 C.2     1  UNL1        0.2255
      6 O         144.9534  141.5229  164.5486 O.2     1  UNL1       -0.2749
      7 C         142.9929  138.6543  162.5368 C.3     1  UNL1        0.0935
      8 C         142.9664  138.5712  161.0393 C.3     1  UNL1        0.0233
      9 C         143.5533  139.5459  165.4873 C.3     1  UNL1        0.0811
     10 C         143.3056  138.2451  166.1918 C.3     1  UNL1        0.0142
     11 C         142.8400  139.5316  166.8067 C.3     1  UNL1        0.0315
     12 C         142.1594  140.2660  167.9235 C.ar    1  UNL1       -0.0203
     13 C         140.7564  139.9055  168.3128 C.ar    1  UNL1        0.0072
     14 C         140.0757  140.6399  169.4297 C.ar    1  UNL1        0.0582
     15 CL        138.6727  140.2794  169.8190 Cl      1  UNL1       -0.0822
     16 C         140.7980  141.7348  170.1572 C.ar    1  UNL1        0.0228
     17 C         142.2011  142.0954  169.7678 C.ar    1  UNL1        0.0582
     18 CL        142.9234  143.1903  170.4954 Cl      1  UNL1       -0.0822
     19 C         142.8817  141.3609  168.6510 C.ar    1  UNL1        0.0072
     20 C         142.8285  138.2868  158.1588 C.3     1  UNL1        0.0898
     21 O         144.2120  136.8473  155.9196 O.2     1  UNL1       -0.2702
     22 C         143.2119  136.1236  156.7718 C.2     1  UNL1        0.2456
     23 N         142.5202  136.8433  157.8914 N.am    1  UNL1       -0.3009
     24 H         141.8638  136.3684  158.4507 H       1  UNL1        0.1497
     25 C         142.9036  134.6802  156.5043 C.2     1  UNL1        0.0525
     26 C         141.8517  134.3114  155.5006 C.2     1  UNL1       -0.0153
     27 C         141.5434  132.8681  155.2332 C.3     1  UNL1        0.0726
     28 C         142.2870  131.7934  155.9695 C.2     1  UNL1        0.0933
     29 N         142.2009  130.2967  155.9167 N.am    1  UNL1       -0.1431
     30 C         143.1996  129.7405  156.8879 C.2     1  UNL1        0.4298
     31 O         143.4509  128.2867  157.1587 O.2     1  UNL1       -0.2238
     32 O         143.9029  130.8934  157.5409 O.3     1  UNL1       -0.4079
     33 C         143.3389  132.1621  156.9732 C.2     1  UNL1        0.1618
     34 C         143.6472  133.6055  157.2407 C.2     1  UNL1        0.0429
@<TRIPOS>BOND
     1    21    22    2
     2    22    23   am
     3    23    20    1
     4     1    20    1
     5     1     2    1
     6     2     3    1
     7     3     4    1
     8     4     5   am
     9     5     6    2
    10     5     9    1
    11     9    10    1
    12    10    11    1
    13    11    12    1
    14    12    13   ar
    15    13    14   ar
    16    14    15    1
    17    14    16   ar
    18    16    17   ar
    19    17    18    1
    20    17    19   ar
    21     4     7    1
    22     8     7    1
    23    22    25    1
    24    25    26    2
    25    26    27    1
    26    27    28    1
    27    28    29    2
    28    29    30    1
    29    30    31    2
    30    30    32    1
    31    32    33    1
    32    33    34    2
    33     8     1    1
    34    34    25    1
    35     8     2    1
    36    33    28    1
    37    11     9    1
    38    19    12   ar
    39    23    24    1
@<TRIPOS>MOLECULE
*****
 34 39 0 0 0
SMALL
GASTEIGER

@<TRIPOS>ATOM
      1 C         142.9908  138.9780  159.1378 C.3     1  UNL1        0.0230
      2 C         143.6324  138.6810  160.4607 C.3     1  UNL1        0.0233
      3 C         144.2026  138.6824  161.8481 C.3     1  UNL1        0.0935
      4 N         143.9955  140.0481  162.4330 N.am    1  UNL1       -0.2795
      5 C         144.4132  140.4931  163.8032 C.2     1  UNL1        0.2255
      6 O         145.1067  139.5336  164.7244 O.2     1  UNL1       -0.2749
      7 C         143.2973  140.8907  161.4071 C.3     1  UNL1        0.0935
      8 C         143.0729  140.0457  160.1881 C.3     1  UNL1        0.0233
      9 C         144.1375  141.8975  164.2522 C.3     1  UNL1        0.0811
     10 C         144.5420  143.1166  165.0267 C.3     1  UNL1        0.0142
     11 C         143.2555  143.1107  164.2555 C.3     1  UNL1        0.0315
     12 C         142.0035  143.8077  163.8121 C.ar    1  UNL1       -0.0203
     13 C         141.8962  144.3390  162.4135 C.ar    1  UNL1        0.0072
     14 C         140.6441  145.0361  161.9700 C.ar    1  UNL1        0.0582
     15 CL        140.5367  145.5674  160.5714 Cl      1  UNL1       -0.0822
     16 C         139.4996  145.2019  162.9252 C.ar    1  UNL1        0.0228
     17 C         139.6070  144.6706  164.3239 C.ar    1  UNL1        0.0582
     18 CL        138.4624  144.8364  165.2791 Cl      1  UNL1       -0.0822
     19 C         140.8590  143.9735  164.7673 C.ar    1  UNL1        0.0072
     20 C         142.5731  138.5331  157.7676 C.3     1  UNL1        0.0898
     21 O         144.3220  136.9163  155.9435 O.2     1  UNL1       -0.2702
     22 C         143.1322  136.2807  156.5995 C.2     1  UNL1        0.2456
     23 N         142.2578  137.0890  157.5116 N.am    1  UNL1       -0.3009
     24 H         141.4769  136.6719  157.9422 H       1  UNL1        0.1497
     25 C         142.8169  134.8367  156.3435 C.2     1  UNL1        0.0525
     26 C         141.7727  134.4648  155.3330 C.2     1  UNL1       -0.0153
     27 C         141.4574  133.0208  155.0770 C.3     1  UNL1        0.0726
     28 C         142.1863  131.9488  155.8316 C.2     1  UNL1        0.0933
     29 N         142.0907  130.4523  155.7931 N.am    1  UNL1       -0.1431
     30 C         143.0759  129.8994  156.7798 C.2     1  UNL1        0.4298
     31 O         143.3147  128.4467  157.0677 O.2     1  UNL1       -0.2238
     32 O         143.7803  131.0541  157.4282 O.3     1  UNL1       -0.4079
     33 C         143.2305  132.3207  156.8422 C.2     1  UNL1        0.1618
     34 C         143.5458  133.7647  157.0981 C.2     1  UNL1        0.0429
@<TRIPOS>BOND
     1    21    22    2
     2    22    23   am
     3    23    20    1
     4     1    20    1
     5     1     2    1
     6     2     3    1
     7     3     4    1
     8     4     5   am
     9     5     6    2
    10     5     9    1
    11     9    10    1
    12    10    11    1
    13    11    12    1
    14    12    13   ar
    15    13    14   ar
    16    14    15    1
    17    14    16   ar
    18    16    17   ar
    19    17    18    1
    20    17    19   ar
    21     4     7    1
    22     8     7    1
    23    22    25    1
    24    25    26    2
    25    26    27    1
    26    27    28    1
    27    28    29    2
    28    29    30    1
    29    30    31    2
    30    30    32    1
    31    32    33    1
    32    33    34    2
    33     8     1    1
    34    34    25    1
    35     8     2    1
    36    33    28    1
    37    11     9    1
    38    19    12   ar
    39    23    24    1
@<TRIPOS>MOLECULE
*****
 34 39 0 0 0
SMALL
GASTEIGER

@<TRIPOS>ATOM
      1 C         142.8241  138.4051  159.3228 C.3     1  UNL1        0.0230
      2 C         143.6777  139.3133  160.1574 C.3     1  UNL1        0.0233
      3 C         144.4211  140.0510  161.2312 C.3     1  UNL1        0.0935
      4 N         144.0728  139.4258  162.5494 N.am    1  UNL1       -0.2795
      5 C         144.5921  139.8503  163.8911 C.2     1  UNL1        0.2255
      6 O         145.5513  140.9989  163.9951 O.2     1  UNL1       -0.2749
      7 C         143.1141  138.3017  162.2904 C.3     1  UNL1        0.0935
      8 C         142.8699  138.2321  160.8120 C.3     1  UNL1        0.0233
      9 C         144.1522  139.1262  165.1289 C.3     1  UNL1        0.0811
     10 C         144.3910  138.0776  166.1745 C.3     1  UNL1        0.0142
     11 C         143.1515  138.9207  166.2272 C.3     1  UNL1        0.0315
     12 C         141.8581  139.2888  166.8918 C.ar    1  UNL1       -0.0203
     13 C         141.8501  139.7264  168.3264 C.ar    1  UNL1        0.0072
     14 C         140.5566  140.0945  168.9911 C.ar    1  UNL1        0.0582
     15 CL        140.5486  140.5322  170.4257 Cl      1  UNL1       -0.0822
     16 C         139.2713  140.0250  168.2209 C.ar    1  UNL1        0.0228
     17 C         139.2794  139.5873  166.7862 C.ar    1  UNL1        0.0582
     18 CL        137.9941  139.5177  166.0160 Cl      1  UNL1       -0.0822
     19 C         140.5728  139.2192  166.1216 C.ar    1  UNL1        0.0072
     20 C         142.3048  137.9807  157.9811 C.3     1  UNL1        0.0898
     21 O         140.5563  136.5396  156.0148 O.2     1  UNL1       -0.2702
     22 C         141.8923  135.9693  156.3891 C.2     1  UNL1        0.2456
     23 N         142.7665  136.6898  157.3722 N.am    1  UNL1       -0.3009
     24 H         143.6433  136.3156  157.6179 H       1  UNL1        0.1497
     25 C         142.3540  134.6785  155.7803 C.2     1  UNL1        0.0525
     26 C         141.9634  134.3303  154.3745 C.2     1  UNL1       -0.0153
     27 C         142.4251  133.0395  153.7658 C.3     1  UNL1        0.0726
     28 C         143.2773  132.0969  154.5627 C.2     1  UNL1        0.0933
     29 N         143.8781  130.7629  154.2316 N.am    1  UNL1       -0.1431
     30 C         144.6400  130.2867  155.4327 C.2     1  UNL1        0.4298
     31 O         145.3987  128.9972  155.5413 O.2     1  UNL1       -0.2238
     32 O         144.5101  131.3264  156.5061 O.3     1  UNL1       -0.4079
     33 C         143.6679  132.4451  155.9685 C.2     1  UNL1        0.1618
     34 C         143.2062  133.7359  156.5772 C.2     1  UNL1        0.0429
@<TRIPOS>BOND
     1    21    22    2
     2    22    23   am
     3    23    20    1
     4     1    20    1
     5     1     2    1
     6     2     3    1
     7     3     4    1
     8     4     5   am
     9     5     6    2
    10     5     9    1
    11     9    10    1
    12    10    11    1
    13    11    12    1
    14    12    13   ar
    15    13    14   ar
    16    14    15    1
    17    14    16   ar
    18    16    17   ar
    19    17    18    1
    20    17    19   ar
    21     4     7    1
    22     8     7    1
    23    22    25    1
    24    25    26    2
    25    26    27    1
    26    27    28    1
    27    28    29    2
    28    29    30    1
    29    30    31    2
    30    30    32    1
    31    32    33    1
    32    33    34    2
    33     8     1    1
    34    34    25    1
    35     8     2    1
    36    33    28    1
    37    11     9    1
    38    19    12   ar
    39    23    24    1
@<TRIPOS>MOLECULE
*****
 34 39 0 0 0
SMALL
GASTEIGER

@<TRIPOS>ATOM
      1 C         140.2144  143.6825  158.1863 C.3     1  UNL1        0.0230
      2 C         139.2014  142.9206  158.9885 C.3     1  UNL1        0.0233
      3 C         138.3026  142.3247  160.0311 C.3     1  UNL1        0.0935
      4 N         138.6367  142.9592  161.3486 N.am    1  UNL1       -0.2795
      5 C         137.9806  142.6584  162.6635 C.2     1  UNL1        0.2255
      6 O         136.8822  141.6395  162.7381 O.2     1  UNL1       -0.2749
      7 C         139.7419  143.9472  161.1203 C.3     1  UNL1        0.0935
      8 C         140.0909  143.9234  159.6616 C.3     1  UNL1        0.0233
      9 C         138.4230  143.3764  163.9040 C.3     1  UNL1        0.0811
     10 C         138.2132  144.4547  164.9254 C.3     1  UNL1        0.0142
     11 C         139.3988  143.5418  165.0311 C.3     1  UNL1        0.0315
     12 C         140.6467  143.1103  165.7428 C.ar    1  UNL1       -0.0203
     13 C         141.9582  143.0962  165.0152 C.ar    1  UNL1        0.0072
     14 C         143.2062  142.6647  165.7269 C.ar    1  UNL1        0.0582
     15 CL        144.5178  142.6505  164.9992 Cl      1  UNL1       -0.0822
     16 C         143.1425  142.2474  167.1662 C.ar    1  UNL1        0.0228
     17 C         141.8308  142.2615  167.8939 C.ar    1  UNL1        0.0582
     18 CL        141.7671  141.8442  169.3333 Cl      1  UNL1       -0.0822
     19 C         140.5829  142.6930  167.1822 C.ar    1  UNL1        0.0072
     20 C         140.8704  143.9833  156.8713 C.3     1  UNL1        0.0898
     21 O         138.4073  145.0492  155.5308 O.2     1  UNL1       -0.2702
     22 C         139.6256  145.9147  155.6588 C.2     1  UNL1        0.2456
     23 N         140.8572  145.3818  156.3291 N.am    1  UNL1       -0.3009
     24 H         141.6568  145.9499  156.4131 H       1  UNL1        0.1497
     25 C         139.6124  147.3133  155.1165 C.2     1  UNL1        0.0525
     26 C         140.3853  147.6433  153.8741 C.2     1  UNL1       -0.0153
     27 C         140.3721  149.0418  153.3319 C.3     1  UNL1        0.0726
     28 C         139.5859  150.1102  154.0321 C.2     1  UNL1        0.0933
     29 N         139.3858  151.5669  153.7349 N.am    1  UNL1       -0.1431
     30 C         138.4892  152.1370  154.7936 C.2     1  UNL1        0.4298
     31 O         138.0276  153.5614  154.8849 O.2     1  UNL1       -0.2238
     32 O         138.1352  151.0328  155.7452 O.3     1  UNL1       -0.4079
     33 C         138.8129  149.7802  155.2745 C.2     1  UNL1        0.1618
     34 C         138.8262  148.3817  155.8167 C.2     1  UNL1        0.0429
@<TRIPOS>BOND
     1    21    22    2
     2    22    23   am
     3    23    20    1
     4     1    20    1
     5     1     2    1
     6     2     3    1
     7     3     4    1
     8     4     5   am
     9     5     6    2
    10     5     9    1
    11     9    10    1
    12    10    11    1
    13    11    12    1
    14    12    13   ar
    15    13    14   ar
    16    14    15    1
    17    14    16   ar
    18    16    17   ar
    19    17    18    1
    20    17    19   ar
    21     4     7    1
    22     8     7    1
    23    22    25    1
    24    25    26    2
    25    26    27    1
    26    27    28    1
    27    28    29    2
    28    29    30    1
    29    30    31    2
    30    30    32    1
    31    32    33    1
    32    33    34    2
    33     8     1    1
    34    34    25    1
    35     8     2    1
    36    33    28    1
    37    11     9    1
    38    19    12   ar
    39    23    24    1
@<TRIPOS>MOLECULE
*****
 34 39 0 0 0
SMALL
GASTEIGER

@<TRIPOS>ATOM
      1 C         139.3724  139.5939  161.6723 C.3     1  UNL1        0.0230
      2 C         140.6523  139.7990  160.9174 C.3     1  UNL1        0.0233
      3 C         141.8130  139.7896  159.9673 C.3     1  UNL1        0.0935
      4 N         141.5106  138.8061  158.8758 N.am    1  UNL1       -0.2795
      5 C         142.3997  138.4786  157.7129 C.2     1  UNL1        0.2255
      6 O         143.7274  139.1615  157.5682 O.2     1  UNL1       -0.2749
      7 C         140.1630  138.2077  159.1512 C.3     1  UNL1        0.0935
      8 C         139.6326  138.8214  160.4131 C.3     1  UNL1        0.0233
      9 C         141.9611  137.4682  156.6948 C.3     1  UNL1        0.0811
     10 C         141.1994  137.1260  155.4487 C.3     1  UNL1        0.0142
     11 C         141.9632  136.0603  156.1773 C.3     1  UNL1        0.0315
     12 C         142.4052  134.6321  156.2993 C.ar    1  UNL1       -0.0203
     13 C         141.6483  133.5495  155.5888 C.ar    1  UNL1        0.0072
     14 C         142.0904  132.1213  155.7107 C.ar    1  UNL1        0.0582
     15 CL        141.3334  131.0386  155.0002 Cl      1  UNL1       -0.0822
     16 C         143.2894  131.7758  156.5431 C.ar    1  UNL1        0.0228
     17 C         144.0464  132.8585  157.2536 C.ar    1  UNL1        0.0582
     18 CL        145.2454  132.5130  158.0861 Cl      1  UNL1       -0.0822
     19 C         143.6043  134.2866  157.1317 C.ar    1  UNL1        0.0072
     20 C         138.4833  139.9214  162.8351 C.3     1  UNL1        0.0898
     21 O         139.9187  137.8624  164.4784 O.2     1  UNL1       -0.2702
     22 C         139.8027  139.2723  164.9771 C.2     1  UNL1        0.2456
     23 N         139.0850  140.3018  164.1555 N.am    1  UNL1       -0.3009
     24 H         139.0089  141.2271  164.4828 H       1  UNL1        0.1497
     25 C         140.4044  139.6527  166.2975 C.2     1  UNL1        0.0525
     26 C         141.8462  139.3504  166.5796 C.2     1  UNL1       -0.0153
     27 C         142.4479  139.7308  167.8999 C.3     1  UNL1        0.0726
     28 C         141.6076  140.4135  168.9381 C.2     1  UNL1        0.0933
     29 N         141.9222  140.9038  170.3204 N.am    1  UNL1       -0.1431
     30 C         140.6748  141.5091  170.8926 C.2     1  UNL1        0.4298
     31 O         140.5370  142.1229  172.2544 O.2     1  UNL1       -0.2238
     32 O         139.5892  141.3929  169.8639 O.3     1  UNL1       -0.4079
     33 C         140.1658  140.7158  168.6560 C.2     1  UNL1        0.1618
     34 C         139.5642  140.3354  167.3357 C.2     1  UNL1        0.0429
@<TRIPOS>BOND
     1    21    22    2
     2    22    23   am
     3    23    20    1
     4     1    20    1
     5     1     2    1
     6     2     3    1
     7     3     4    1
     8     4     5   am
     9     5     6    2
    10     5     9    1
    11     9    10    1
    12    10    11    1
    13    11    12    1
    14    12    13   ar
    15    13    14   ar
    16    14    15    1
    17    14    16   ar
    18    16    17   ar
    19    17    18    1
    20    17    19   ar
    21     4     7    1
    22     8     7    1
    23    22    25    1
    24    25    26    2
    25    26    27    1
    26    27    28    1
    27    28    29    2
    28    29    30    1
    29    30    31    2
    30    30    32    1
    31    32    33    1
    32    33    34    2
    33     8     1    1
    34    34    25    1
    35     8     2    1
    36    33    28    1
    37    11     9    1
    38    19    12   ar
    39    23    24    1
@<TRIPOS>MOLECULE
*****
 34 39 0 0 0
SMALL
GASTEIGER

@<TRIPOS>ATOM
      1 C         142.7371  138.8232  158.9540 C.3     1  UNL1        0.0230
      2 C         143.4335  138.5351  160.2509 C.3     1  UNL1        0.0233
      3 C         144.0716  138.5490  161.6084 C.3     1  UNL1        0.0935
      4 N         143.9378  139.9338  162.1692 N.am    1  UNL1       -0.2795
      5 C         144.4371  140.3956  163.5061 C.2     1  UNL1        0.2255
      6 O         145.1441  139.4347  164.4155 O.2     1  UNL1       -0.2749
      7 C         143.2171  140.7757  161.1584 C.3     1  UNL1        0.0935
      8 C         142.9055  139.9112  159.9728 C.3     1  UNL1        0.0233
      9 C         144.2295  141.8183  163.9337 C.3     1  UNL1        0.0811
     10 C         144.7228  143.0492  164.6347 C.3     1  UNL1        0.0142
     11 C         143.3764  143.0515  163.9734 C.3     1  UNL1        0.0315
     12 C         142.1067  143.7648  163.6145 C.ar    1  UNL1       -0.0203
     13 C         141.0297  143.9422  164.6434 C.ar    1  UNL1        0.0072
     14 C         139.7598  144.6555  164.2846 C.ar    1  UNL1        0.0582
     15 CL        138.6828  144.8330  165.3134 Cl      1  UNL1       -0.0822
     16 C         139.5670  145.1913  162.8969 C.ar    1  UNL1        0.0228
     17 C         140.6441  145.0139  161.8680 C.ar    1  UNL1        0.0582
     18 CL        140.4513  145.5497  160.4803 Cl      1  UNL1       -0.0822
     19 C         141.9139  144.3006  162.2268 C.ar    1  UNL1        0.0072
     20 C         142.2378  138.3614  157.6171 C.3     1  UNL1        0.0898
     21 O         144.2495  136.7212  156.1128 O.2     1  UNL1       -0.2702
     22 C         142.9911  136.0829  156.6216 C.2     1  UNL1        0.2456
     23 N         141.9852  136.9029  157.3737 N.am    1  UNL1       -0.3009
     24 H         141.1593  136.4839  157.7076 H       1  UNL1        0.1497
     25 C         142.7385  134.6244  156.3782 C.2     1  UNL1        0.0525
     26 C         143.4667  133.5920  157.1867 C.2     1  UNL1       -0.0153
     27 C         143.2141  132.1336  156.9433 C.3     1  UNL1        0.0726
     28 C         142.2333  131.7077  155.8914 C.2     1  UNL1        0.0933
     29 N         141.7812  130.3538  155.4300 N.am    1  UNL1       -0.1431
     30 C         140.7735  130.5496  154.3363 C.2     1  UNL1        0.4298
     31 O         140.0613  129.4617  153.5883 O.2     1  UNL1       -0.2238
     32 O         140.6029  132.0244  154.1217 O.3     1  UNL1       -0.4079
     33 C         141.5051  132.7401  155.0828 C.2     1  UNL1        0.1618
     34 C         141.7577  134.1985  155.3262 C.2     1  UNL1        0.0429
@<TRIPOS>BOND
     1    21    22    2
     2    22    23   am
     3    23    20    1
     4     1    20    1
     5     1     2    1
     6     2     3    1
     7     3     4    1
     8     4     5   am
     9     5     6    2
    10     5     9    1
    11     9    10    1
    12    10    11    1
    13    11    12    1
    14    12    13   ar
    15    13    14   ar
    16    14    15    1
    17    14    16   ar
    18    16    17   ar
    19    17    18    1
    20    17    19   ar
    21     4     7    1
    22     8     7    1
    23    22    25    1
    24    25    26    2
    25    26    27    1
    26    27    28    1
    27    28    29    2
    28    29    30    1
    29    30    31    2
    30    30    32    1
    31    32    33    1
    32    33    34    2
    33     8     1    1
    34    34    25    1
    35     8     2    1
    36    33    28    1
    37    11     9    1
    38    19    12   ar
    39    23    24    1
@<TRIPOS>MOLECULE
*****
 34 39 0 0 0
SMALL
GASTEIGER

@<TRIPOS>ATOM
      1 C         143.1275  139.1051  159.3547 C.3     1  UNL1        0.0230
      2 C         143.5182  138.6485  160.7290 C.3     1  UNL1        0.0233
      3 C         143.8429  138.4876  162.1846 C.3     1  UNL1        0.0935
      4 N         143.6098  139.8065  162.8601 N.am    1  UNL1       -0.2795
      5 C         143.8103  140.0981  164.3177 C.2     1  UNL1        0.2255
      6 O         144.2863  139.0156  165.2407 O.2     1  UNL1       -0.2749
      7 C         143.1408  140.7825  161.8221 C.3     1  UNL1        0.0935
      8 C         143.0842  140.0668  160.5050 C.3     1  UNL1        0.0233
      9 C         143.5347  141.4722  164.8525 C.3     1  UNL1        0.0811
     10 C         143.8739  142.5938  165.7890 C.3     1  UNL1        0.0142
     11 C         142.7184  142.7305  164.8423 C.3     1  UNL1        0.0315
     12 C         141.5799  143.5359  164.2899 C.ar    1  UNL1       -0.0203
     13 C         140.3569  143.7762  165.1244 C.ar    1  UNL1        0.0072
     14 C         139.2184  144.5817  164.5720 C.ar    1  UNL1        0.0582
     15 CL        137.9954  144.8220  165.4065 Cl      1  UNL1       -0.0822
     16 C         139.3030  145.1469  163.1851 C.ar    1  UNL1        0.0228
     17 C         140.5261  144.9065  162.3507 C.ar    1  UNL1        0.0582
     18 CL        140.6107  145.4717  160.9638 Cl      1  UNL1       -0.0822
     19 C         141.6645  144.1011  162.9031 C.ar    1  UNL1        0.0072
     20 C         142.9270  138.8135  157.8970 C.3     1  UNL1        0.0898
     21 O         140.7133  137.4088  156.4388 O.2     1  UNL1       -0.2702
     22 C         142.0302  136.7208  156.6454 C.2     1  UNL1        0.2456
     23 N         143.1370  137.4231  157.3745 N.am    1  UNL1       -0.3009
     24 H         144.0013  136.9716  157.5101 H       1  UNL1        0.1497
     25 C         142.2401  135.3305  156.1229 C.2     1  UNL1        0.0525
     26 C         141.2282  134.7142  155.2031 C.2     1  UNL1       -0.0153
     27 C         141.4382  133.3239  154.6806 C.3     1  UNL1        0.0726
     28 C         142.6601  132.5500  155.0779 C.2     1  UNL1        0.0933
     29 N         143.1336  131.1711  154.7249 N.am    1  UNL1       -0.1431
     30 C         144.4382  130.9353  155.4266 C.2     1  UNL1        0.4298
     31 O         145.2650  129.6857  155.3543 O.2     1  UNL1       -0.2238
     32 O         144.7710  132.1683  156.2132 O.3     1  UNL1       -0.4079
     33 C         143.6720  133.1663  155.9977 C.2     1  UNL1        0.1618
     34 C         143.4620  134.5565  156.5202 C.2     1  UNL1        0.0429
@<TRIPOS>BOND
     1    21    22    2
     2    22    23   am
     3    23    20    1
     4     1    20    1
     5     1     2    1
     6     2     3    1
     7     3     4    1
     8     4     5   am
     9     5     6    2
    10     5     9    1
    11     9    10    1
    12    10    11    1
    13    11    12    1
    14    12    13   ar
    15    13    14   ar
    16    14    15    1
    17    14    16   ar
    18    16    17   ar
    19    17    18    1
    20    17    19   ar
    21     4     7    1
    22     8     7    1
    23    22    25    1
    24    25    26    2
    25    26    27    1
    26    27    28    1
    27    28    29    2
    28    29    30    1
    29    30    31    2
    30    30    32    1
    31    32    33    1
    32    33    34    2
    33     8     1    1
    34    34    25    1
    35     8     2    1
    36    33    28    1
    37    11     9    1
    38    19    12   ar
    39    23    24    1
