@<TRIPOS>MOLECULE
*****
 32 36 0 0 0
SMALL
GASTEIGER

@<TRIPOS>ATOM
      1 N         141.7720  138.8679  161.5397 N.pl3   1  UNL1       -0.2931
      2 C         141.5447  138.3887  160.1366 C.3     1  UNL1        0.0940
      3 C         142.7217  138.8084  159.3069 C.3     1  UNL1        0.0233
      4 C         143.6766  139.5470  160.1974 C.3     1  UNL1        0.0233
      5 C         143.0896  139.5837  161.5773 C.3     1  UNL1        0.0940
      6 C         142.2710  139.4665  162.8404 C.3     1  UNL1        0.1131
      7 N         140.9803  138.7263  162.6501 N.am    1  UNL1       -0.2761
      8 C         140.0529  138.5249  163.8117 C.2     1  UNL1        0.2275
      9 O         138.7218  137.8538  163.9782 O.2     1  UNL1       -0.2748
     10 C         140.6171  138.1873  161.2982 C.3     1  UNL1        0.1131
     11 C         138.9896  138.2634  165.0244 C.ar    1  UNL1        0.0877
     12 C         140.1135  137.2991  164.7860 C.ar    1  UNL1        0.0147
     13 C         141.0410  137.5006  163.6245 C.ar    1  UNL1        0.0350
     14 C         140.8445  138.6665  162.7013 C.ar    1  UNL1        0.1317
     15 N         139.7205  139.6308  162.9397 N.ar    1  UNL1       -0.2285
     16 C         138.7931  139.4293  164.1013 C.ar    1  UNL1        0.1105
     17 N         137.1346  137.8605  167.3474 N.1     1  UNL1       -0.1908
     18 C         138.0621  138.0620  166.1859 C.1     1  UNL1        0.1020
     19 C         140.4162  139.0638  165.1636 C.3     1  UNL1        0.1110
     20 C         141.3751  140.2113  165.2806 C.3     1  UNL1        0.1655
     21 S         141.7398  140.7491  166.6326 S.O2    1  UNL1        0.0097
     22 O         141.0366  142.0344  166.3109 O.2     1  UNL1       -0.1686
     23 O         142.4431  139.4638  166.9542 O.2     1  UNL1       -0.1686
     24 C         142.1045  141.2869  167.9845 C.ar    1  UNL1        0.1131
     25 C         143.3538  142.0992  168.1565 C.ar    1  UNL1        0.0190
     26 C         143.7185  142.6370  169.5084 C.ar    1  UNL1        0.0029
     27 C         142.8339  142.3626  170.6884 C.ar    1  UNL1        0.0197
     28 C         141.5846  141.5504  170.5164 C.ar    1  UNL1        0.0892
     29 N         140.5257  141.1199  171.4876 N.ar    1  UNL1       -0.2362
     30 C         139.5065  140.3160  170.7359 C.ar    1  UNL1        0.1345
     31 S         139.9356  140.2497  169.3001 S.2     1  UNL1       -0.0632
     32 C         141.2200  141.0125  169.1644 C.ar    1  UNL1        0.0656
@<TRIPOS>BOND
     1    17    18    3
     2    18    11    1
     3    11    12   ar
     4    12    13   ar
     5    13    14   ar
     6    14     1    1
     7     1     2    1
     8     2     3    1
     9     3     4    1
    10     4     5    1
    11     5     6    1
    12     6     7    1
    13     7     8   am
    14     8     9    2
    15     8    19    1
    16    19    20    1
    17    20    21    1
    18    21    22    2
    19    21    23    2
    20    21    24    1
    21    24    25   ar
    22    25    26   ar
    23    26    27   ar
    24    27    28   ar
    25    28    29   ar
    26    29    30   ar
    27    30    31   ar
    28    31    32   ar
    29     7    10    1
    30    14    15   ar
    31    15    16   ar
    32    16    11   ar
    33     5     1    1
    34    32    24   ar
    35    10     2    1
    36    32    28   ar
@<TRIPOS>MOLECULE
*****
 32 36 0 0 0
SMALL
GASTEIGER

@<TRIPOS>ATOM
      1 N         140.2834  141.6603  168.4847 N.pl3   1  UNL1       -0.2931
      2 C         139.8928  141.2260  169.8663 C.3     1  UNL1        0.0940
      3 C         139.8925  142.4377  170.7504 C.3     1  UNL1        0.0233
      4 C         140.2830  143.6209  169.9151 C.3     1  UNL1        0.0233
      5 C         140.5246  143.1404  168.5149 C.3     1  UNL1        0.0940
      6 C         140.6962  142.3856  167.2187 C.3     1  UNL1        0.1131
      7 N         140.4217  140.9161  167.3415 N.am    1  UNL1       -0.2761
      8 C         140.5488  140.0264  166.1406 C.2     1  UNL1        0.2275
      9 O         140.3563  138.5573  165.9070 O.2     1  UNL1       -0.2748
     10 C         140.0200  140.3362  168.6653 C.3     1  UNL1        0.1131
     11 C         140.6646  138.9910  164.8819 C.ar    1  UNL1        0.0877
     12 C         139.3589  139.6664  165.1802 C.ar    1  UNL1        0.0147
     13 C         139.2319  140.5561  166.3811 C.ar    1  UNL1        0.0350
     14 C         140.4106  140.7705  167.2837 C.ar    1  UNL1        0.1317
     15 N         141.7163  140.0951  166.9855 N.ar    1  UNL1       -0.2285
     16 C         141.8433  139.2054  165.7845 C.ar    1  UNL1        0.1105
     17 N         140.9187  137.2115  162.4801 N.1     1  UNL1       -0.1908
     18 C         140.7917  138.1013  163.6810 C.1     1  UNL1        0.1020
     19 C         140.9505  140.6063  164.8168 C.3     1  UNL1        0.1110
     20 C         141.6733  141.9195  164.7616 C.3     1  UNL1        0.1655
     21 S         141.3410  142.9140  163.6889 S.O2    1  UNL1        0.0097
     22 O         140.3182  141.9696  163.1303 O.2     1  UNL1       -0.1686
     23 O         142.3638  143.8584  164.2475 O.2     1  UNL1       -0.1686
     24 C         141.0087  143.9084  162.6162 C.ar    1  UNL1        0.1131
     25 C         139.9896  144.9782  162.8749 C.ar    1  UNL1        0.0190
     26 C         139.6572  145.9726  161.8023 C.ar    1  UNL1        0.0029
     27 C         140.3440  145.8972  160.4708 C.ar    1  UNL1        0.0197
     28 C         141.3631  144.8274  160.2121 C.ar    1  UNL1        0.0892
     29 N         142.1970  144.5059  159.0074 N.ar    1  UNL1       -0.2362
     30 C         143.0448  143.3128  159.3357 C.ar    1  UNL1        0.1345
     31 S         142.7348  142.8969  160.7431 S.2     1  UNL1       -0.0632
     32 C         141.6954  143.8330  161.2848 C.ar    1  UNL1        0.0656
@<TRIPOS>BOND
     1    17    18    3
     2    18    11    1
     3    11    12   ar
     4    12    13   ar
     5    13    14   ar
     6    14     1    1
     7     1     2    1
     8     2     3    1
     9     3     4    1
    10     4     5    1
    11     5     6    1
    12     6     7    1
    13     7     8   am
    14     8     9    2
    15     8    19    1
    16    19    20    1
    17    20    21    1
    18    21    22    2
    19    21    23    2
    20    21    24    1
    21    24    25   ar
    22    25    26   ar
    23    26    27   ar
    24    27    28   ar
    25    28    29   ar
    26    29    30   ar
    27    30    31   ar
    28    31    32   ar
    29     7    10    1
    30    14    15   ar
    31    15    16   ar
    32    16    11   ar
    33     5     1    1
    34    32    24   ar
    35    10     2    1
    36    32    28   ar
@<TRIPOS>MOLECULE
*****
 32 36 0 0 0
SMALL
GASTEIGER

@<TRIPOS>ATOM
      1 N         139.7278  143.2432  161.2065 N.pl3   1  UNL1       -0.2931
      2 C         139.3447  143.1523  159.7592 C.3     1  UNL1        0.0940
      3 C         139.9960  144.2929  159.0347 C.3     1  UNL1        0.0233
      4 C         140.7817  145.0887  160.0344 C.3     1  UNL1        0.0233
      5 C         140.6159  144.4400  161.3767 C.3     1  UNL1        0.0940
      6 C         140.2758  143.5900  162.5771 C.3     1  UNL1        0.1131
      7 N         139.3806  142.4304  162.2547 N.am    1  UNL1       -0.2761
      8 C         138.9510  141.4898  163.3412 C.2     1  UNL1        0.2275
      9 O         138.0874  140.2639  163.3769 O.2     1  UNL1       -0.2748
     10 C         138.9150  142.2116  160.8457 C.3     1  UNL1        0.1131
     11 C         138.4386  140.4212  164.4660 C.ar    1  UNL1        0.0877
     12 C         137.7255  141.7276  164.2796 C.ar    1  UNL1        0.0147
     13 C         138.1553  142.6683  163.1932 C.ar    1  UNL1        0.0350
     14 C         139.2981  142.3025  162.2930 C.ar    1  UNL1        0.1317
     15 N         140.0111  140.9960  162.4794 N.ar    1  UNL1       -0.2285
     16 C         139.5814  140.0554  163.5659 C.ar    1  UNL1        0.1105
     17 N         137.5791  138.5398  166.6389 N.1     1  UNL1       -0.1908
     18 C         138.0089  139.4805  165.5524 C.1     1  UNL1        0.1020
     19 C         139.4166  141.7086  164.7502 C.3     1  UNL1        0.1110
     20 C         140.8808  141.8529  165.0423 C.3     1  UNL1        0.1655
     21 S         141.3687  141.8276  166.4605 S.O2    1  UNL1        0.0097
     22 O         140.6164  143.0944  166.7418 O.2     1  UNL1       -0.1686
     23 O         142.1211  140.5608  166.1791 O.2     1  UNL1       -0.1686
     24 C         141.8566  141.8024  167.8787 C.ar    1  UNL1        0.1131
     25 C         143.2021  142.3713  168.2192 C.ar    1  UNL1        0.0190
     26 C         143.6900  142.3461  169.6373 C.ar    1  UNL1        0.0029
     27 C         142.8324  141.7520  170.7152 C.ar    1  UNL1        0.0197
     28 C         141.4869  141.1831  170.3747 C.ar    1  UNL1        0.0892
     29 N         140.4280  140.5367  171.2178 N.ar    1  UNL1       -0.2362
     30 C         139.2856  140.1624  170.3206 C.ar    1  UNL1        0.1345
     31 S         139.6385  140.5774  168.9230 S.2     1  UNL1       -0.0632
     32 C         140.9990  141.2083  168.9564 C.ar    1  UNL1        0.0656
@<TRIPOS>BOND
     1    17    18    3
     2    18    11    1
     3    11    12   ar
     4    12    13   ar
     5    13    14   ar
     6    14     1    1
     7     1     2    1
     8     2     3    1
     9     3     4    1
    10     4     5    1
    11     5     6    1
    12     6     7    1
    13     7     8   am
    14     8     9    2
    15     8    19    1
    16    19    20    1
    17    20    21    1
    18    21    22    2
    19    21    23    2
    20    21    24    1
    21    24    25   ar
    22    25    26   ar
    23    26    27   ar
    24    27    28   ar
    25    28    29   ar
    26    29    30   ar
    27    30    31   ar
    28    31    32   ar
    29     7    10    1
    30    14    15   ar
    31    15    16   ar
    32    16    11   ar
    33     5     1    1
    34    32    24   ar
    35    10     2    1
    36    32    28   ar
@<TRIPOS>MOLECULE
*****
 32 36 0 0 0
SMALL
GASTEIGER

@<TRIPOS>ATOM
      1 N         139.0150  140.6518  161.1650 N.pl3   1  UNL1       -0.2931
      2 C         138.5678  140.7630  159.7376 C.3     1  UNL1        0.0940
      3 C         138.9882  139.5139  159.0213 C.3     1  UNL1        0.0233
      4 C         139.6952  138.6306  160.0063 C.3     1  UNL1        0.0233
      5 C         139.7118  139.3339  161.3311 C.3     1  UNL1        0.0940
      6 C         139.5800  140.2597  162.5164 C.3     1  UNL1        0.1131
      7 N         138.8616  141.5378  162.1999 N.am    1  UNL1       -0.2761
      8 C         138.6493  142.5643  163.2729 C.2     1  UNL1        0.2275
      9 O         137.9932  143.9127  163.3099 O.2     1  UNL1       -0.2748
     10 C         138.3554  141.7896  160.8105 C.3     1  UNL1        0.1131
     11 C         138.3777  143.7312  164.3839 C.ar    1  UNL1        0.0877
     12 C         137.4625  142.5468  164.2873 C.ar    1  UNL1        0.0147
     13 C         137.6749  141.5203  163.2144 C.ar    1  UNL1        0.0350
     14 C         138.8026  141.6783  162.2380 C.ar    1  UNL1        0.1317
     15 N         139.7179  142.8628  162.3345 N.ar    1  UNL1       -0.2285
     16 C         139.5054  143.8893  163.4075 C.ar    1  UNL1        0.1105
     17 N         137.9529  145.7842  166.5297 N.1     1  UNL1       -0.1908
     18 C         138.1653  144.7577  165.4568 C.1     1  UNL1        0.1020
     19 C         139.1554  142.3126  164.6623 C.3     1  UNL1        0.1110
     20 C         140.5541  141.8129  164.8719 C.3     1  UNL1        0.1655
     21 S         140.9954  141.3683  166.2349 S.O2    1  UNL1        0.0097
     22 O         139.6563  140.7312  166.4605 O.2     1  UNL1       -0.1686
     23 O         142.3345  142.0055  166.0092 O.2     1  UNL1       -0.1686
     24 C         141.4366  140.9237  167.5978 C.ar    1  UNL1        0.1131
     25 C         142.1729  139.6272  167.7620 C.ar    1  UNL1        0.0190
     26 C         142.6141  139.1826  169.1249 C.ar    1  UNL1        0.0029
     27 C         142.3191  140.0346  170.3238 C.ar    1  UNL1        0.0197
     28 C         141.5829  141.3311  170.1596 C.ar    1  UNL1        0.0892
     29 N         141.1530  142.3734  171.1489 N.ar    1  UNL1       -0.2362
     30 C         140.4461  143.4622  170.3974 C.ar    1  UNL1        0.1345
     31 S         140.4391  143.0928  168.9436 S.2     1  UNL1       -0.0632
     32 C         141.1416  141.7757  168.7966 C.ar    1  UNL1        0.0656
@<TRIPOS>BOND
     1    17    18    3
     2    18    11    1
     3    11    12   ar
     4    12    13   ar
     5    13    14   ar
     6    14     1    1
     7     1     2    1
     8     2     3    1
     9     3     4    1
    10     4     5    1
    11     5     6    1
    12     6     7    1
    13     7     8   am
    14     8     9    2
    15     8    19    1
    16    19    20    1
    17    20    21    1
    18    21    22    2
    19    21    23    2
    20    21    24    1
    21    24    25   ar
    22    25    26   ar
    23    26    27   ar
    24    27    28   ar
    25    28    29   ar
    26    29    30   ar
    27    30    31   ar
    28    31    32   ar
    29     7    10    1
    30    14    15   ar
    31    15    16   ar
    32    16    11   ar
    33     5     1    1
    34    32    24   ar
    35    10     2    1
    36    32    28   ar
@<TRIPOS>MOLECULE
*****
 32 36 0 0 0
SMALL
GASTEIGER

@<TRIPOS>ATOM
      1 N         142.1088  141.0951  168.6704 N.pl3   1  UNL1       -0.2931
      2 C         141.5269  140.7699  170.0141 C.3     1  UNL1        0.0940
      3 C         142.0227  141.7920  170.9937 C.3     1  UNL1        0.0233
      4 C         142.9111  142.7489  170.2552 C.3     1  UNL1        0.0233
      5 C         142.9643  142.3182  168.8194 C.3     1  UNL1        0.0940
      6 C         142.8329  141.6634  167.4654 C.3     1  UNL1        0.1131
      7 N         141.9472  140.4528  167.4699 N.am    1  UNL1       -0.2761
      8 C         141.7145  139.6890  166.2001 C.2     1  UNL1        0.2275
      9 O         140.9139  138.4702  165.8490 O.2     1  UNL1       -0.2748
     10 C         141.2941  140.0060  168.7443 C.3     1  UNL1        0.1131
     11 C         141.4108  138.8034  164.8611 C.ar    1  UNL1        0.0877
     12 C         142.6303  138.5273  165.6897 C.ar    1  UNL1        0.0147
     13 C         142.8629  139.2912  166.9594 C.ar    1  UNL1        0.0350
     14 C         141.8761  140.3312  167.4006 C.ar    1  UNL1        0.1317
     15 N         140.6566  140.6073  166.5719 N.ar    1  UNL1       -0.2285
     16 C         140.4240  139.8434  165.3022 C.ar    1  UNL1        0.1105
     17 N         140.9453  137.2757  162.3215 N.1     1  UNL1       -0.1908
     18 C         141.1781  138.0395  163.5913 C.1     1  UNL1        0.1020
     19 C         142.3675  140.1358  164.9258 C.3     1  UNL1        0.1110
     20 C         142.8349  141.5536  164.7796 C.3     1  UNL1        0.1655
     21 S         142.1768  142.4614  163.7831 S.O2    1  UNL1        0.0097
     22 O         142.2094  143.5806  164.7813 O.2     1  UNL1       -0.1686
     23 O         142.1442  141.3421  162.7850 O.2     1  UNL1       -0.1686
     24 C         141.5187  143.3691  162.7867 C.ar    1  UNL1        0.1131
     25 C         142.3071  143.9127  161.6322 C.ar    1  UNL1        0.0190
     26 C         141.6491  144.8204  160.6358 C.ar    1  UNL1        0.0029
     27 C         140.2026  145.1847  160.7938 C.ar    1  UNL1        0.0197
     28 C         139.4142  144.6412  161.9484 C.ar    1  UNL1        0.0892
     29 N         137.9836  144.8232  162.3611 N.ar    1  UNL1       -0.2362
     30 C         137.7576  144.0280  163.6127 C.ar    1  UNL1        0.1345
     31 S         139.0484  143.3544  163.9734 S.2     1  UNL1       -0.0632
     32 C         140.0722  143.7334  162.9448 C.ar    1  UNL1        0.0656
@<TRIPOS>BOND
     1    17    18    3
     2    18    11    1
     3    11    12   ar
     4    12    13   ar
     5    13    14   ar
     6    14     1    1
     7     1     2    1
     8     2     3    1
     9     3     4    1
    10     4     5    1
    11     5     6    1
    12     6     7    1
    13     7     8   am
    14     8     9    2
    15     8    19    1
    16    19    20    1
    17    20    21    1
    18    21    22    2
    19    21    23    2
    20    21    24    1
    21    24    25   ar
    22    25    26   ar
    23    26    27   ar
    24    27    28   ar
    25    28    29   ar
    26    29    30   ar
    27    30    31   ar
    28    31    32   ar
    29     7    10    1
    30    14    15   ar
    31    15    16   ar
    32    16    11   ar
    33     5     1    1
    34    32    24   ar
    35    10     2    1
    36    32    28   ar
@<TRIPOS>MOLECULE
*****
 32 36 0 0 0
SMALL
GASTEIGER

@<TRIPOS>ATOM
      1 N         142.6407  142.9452  161.0398 N.pl3   1  UNL1       -0.2931
      2 C         142.6292  143.3457  159.5943 C.3     1  UNL1        0.0940
      3 C         143.7268  142.5978  158.8972 C.3     1  UNL1        0.0233
      4 C         144.4166  141.7350  159.9120 C.3     1  UNL1        0.0233
      5 C         143.7454  141.9496  161.2362 C.3     1  UNL1        0.0940
      6 C         142.8940  142.3574  162.4144 C.3     1  UNL1        0.1131
      7 N         141.8316  143.3577  162.0670 N.am    1  UNL1       -0.2761
      8 C         140.9017  143.8638  163.1296 C.2     1  UNL1        0.2275
      9 O         139.7595  144.8360  163.1379 O.2     1  UNL1       -0.2748
     10 C         141.6992  143.8519  160.6569 C.3     1  UNL1        0.1131
     11 C         139.8509  144.4638  164.2275 C.ar    1  UNL1        0.0877
     12 C         141.1888  145.1128  164.0304 C.ar    1  UNL1        0.0147
     13 C         142.1186  144.6066  162.9678 C.ar    1  UNL1        0.0350
     14 C         141.7107  143.4513  162.1024 C.ar    1  UNL1        0.1317
     15 N         140.3728  142.8023  162.2995 N.ar    1  UNL1       -0.2285
     16 C         139.4429  143.3085  163.3620 C.ar    1  UNL1        0.1105
     17 N         137.9910  145.4760  166.3526 N.1     1  UNL1       -0.1908
     18 C         138.9209  144.9699  165.2900 C.1     1  UNL1        0.1020
     19 C         141.0342  143.3696  164.5396 C.3     1  UNL1        0.1110
     20 C         141.5508  141.9864  164.8040 C.3     1  UNL1        0.1655
     21 S         141.6742  141.4886  166.2137 S.O2    1  UNL1        0.0097
     22 O         142.9626  142.2414  166.3666 O.2     1  UNL1       -0.1686
     23 O         140.3858  140.7358  166.0608 O.2     1  UNL1       -0.1686
     24 C         141.7977  140.9909  167.6233 C.ar    1  UNL1        0.1131
     25 C         142.4741  139.6809  167.8996 C.ar    1  UNL1        0.0190
     26 C         142.5977  139.1832  169.3091 C.ar    1  UNL1        0.0029
     27 C         142.0448  139.9955  170.4426 C.ar    1  UNL1        0.0197
     28 C         141.3684  141.3055  170.1663 C.ar    1  UNL1        0.0892
     29 N         140.7317  142.3171  171.0725 N.ar    1  UNL1       -0.2362
     30 C         140.2146  143.4400  170.2230 C.ar    1  UNL1        0.1345
     31 S         140.5318  143.1224  168.7917 S.2     1  UNL1       -0.0632
     32 C         141.2449  141.8032  168.7567 C.ar    1  UNL1        0.0656
@<TRIPOS>BOND
     1    17    18    3
     2    18    11    1
     3    11    12   ar
     4    12    13   ar
     5    13    14   ar
     6    14     1    1
     7     1     2    1
     8     2     3    1
     9     3     4    1
    10     4     5    1
    11     5     6    1
    12     6     7    1
    13     7     8   am
    14     8     9    2
    15     8    19    1
    16    19    20    1
    17    20    21    1
    18    21    22    2
    19    21    23    2
    20    21    24    1
    21    24    25   ar
    22    25    26   ar
    23    26    27   ar
    24    27    28   ar
    25    28    29   ar
    26    29    30   ar
    27    30    31   ar
    28    31    32   ar
    29     7    10    1
    30    14    15   ar
    31    15    16   ar
    32    16    11   ar
    33     5     1    1
    34    32    24   ar
    35    10     2    1
    36    32    28   ar
@<TRIPOS>MOLECULE
*****
 32 36 0 0 0
SMALL
GASTEIGER

@<TRIPOS>ATOM
      1 N         140.2453  141.6671  168.4650 N.pl3   1  UNL1       -0.2931
      2 C         139.5867  141.2961  169.7606 C.3     1  UNL1        0.0940
      3 C         139.6818  142.4750  170.6832 C.3     1  UNL1        0.0233
      4 C         140.3992  143.5746  169.9576 C.3     1  UNL1        0.0233
      5 C         140.7474  143.0753  168.5868 C.3     1  UNL1        0.0940
      6 C         140.9623  142.3182  167.2983 C.3     1  UNL1        0.1131
      7 N         140.4076  140.9248  167.3238 N.am    1  UNL1       -0.2761
      8 C         140.5407  140.0425  166.1180 C.2     1  UNL1        0.2275
      9 O         140.1172  138.6386  165.8022 O.2     1  UNL1       -0.2748
     10 C         139.7198  140.4137  168.5549 C.3     1  UNL1        0.1131
     11 C         140.6447  139.0198  164.8480 C.ar    1  UNL1        0.0877
     12 C         141.7500  139.0783  165.8603 C.ar    1  UNL1        0.0147
     13 C         141.6169  139.9607  167.0660 C.ar    1  UNL1        0.0350
     14 C         140.3784  140.7846  167.2593 C.ar    1  UNL1        0.1317
     15 N         139.2731  140.7261  166.2469 N.ar    1  UNL1       -0.2285
     16 C         139.4062  139.8437  165.0413 C.ar    1  UNL1        0.1105
     17 N         140.9108  137.2550  162.4367 N.1     1  UNL1       -0.1908
     18 C         140.7778  138.1374  163.6424 C.1     1  UNL1        0.1020
     19 C         141.2286  140.5536  164.8869 C.3     1  UNL1        0.1110
     20 C         141.3941  142.0298  164.6785 C.3     1  UNL1        0.1655
     21 S         141.0743  142.6397  163.3459 S.O2    1  UNL1        0.0097
     22 O         139.8952  143.3426  163.9506 O.2     1  UNL1       -0.1686
     23 O         142.2534  141.9367  162.7412 O.2     1  UNL1       -0.1686
     24 C         140.7545  143.2495  162.0133 C.ar    1  UNL1        0.1131
     25 C         141.3704  144.5598  161.6209 C.ar    1  UNL1        0.0190
     26 C         141.0506  145.1697  160.2884 C.ar    1  UNL1        0.0029
     27 C         140.1149  144.4693  159.3481 C.ar    1  UNL1        0.0197
     28 C         139.4991  143.1591  159.7405 C.ar    1  UNL1        0.0892
     29 N         138.5483  142.2435  159.0278 N.ar    1  UNL1       -0.2362
     30 C         138.2806  141.0678  159.9200 C.ar    1  UNL1        0.1345
     31 S         139.0658  141.2567  161.1840 S.2     1  UNL1       -0.0632
     32 C         139.8189  142.5492  161.0731 C.ar    1  UNL1        0.0656
@<TRIPOS>BOND
     1    17    18    3
     2    18    11    1
     3    11    12   ar
     4    12    13   ar
     5    13    14   ar
     6    14     1    1
     7     1     2    1
     8     2     3    1
     9     3     4    1
    10     4     5    1
    11     5     6    1
    12     6     7    1
    13     7     8   am
    14     8     9    2
    15     8    19    1
    16    19    20    1
    17    20    21    1
    18    21    22    2
    19    21    23    2
    20    21    24    1
    21    24    25   ar
    22    25    26   ar
    23    26    27   ar
    24    27    28   ar
    25    28    29   ar
    26    29    30   ar
    27    30    31   ar
    28    31    32   ar
    29     7    10    1
    30    14    15   ar
    31    15    16   ar
    32    16    11   ar
    33     5     1    1
    34    32    24   ar
    35    10     2    1
    36    32    28   ar
@<TRIPOS>MOLECULE
*****
 32 36 0 0 0
SMALL
GASTEIGER

@<TRIPOS>ATOM
      1 N         141.2597  144.4295  161.6725 N.pl3   1  UNL1       -0.2931
      2 C         141.1166  144.7067  160.2053 C.3     1  UNL1        0.0940
      3 C         140.1833  145.8696  160.0421 C.3     1  UNL1        0.0233
      4 C         139.7496  146.3110  161.4086 C.3     1  UNL1        0.0233
      5 C         140.4149  145.4210  162.4162 C.3     1  UNL1        0.0940
      6 C         141.2059  144.3920  163.1874 C.3     1  UNL1        0.1131
      7 N         142.0017  143.4700  162.3118 N.am    1  UNL1       -0.2761
      8 C         142.8421  142.3908  162.9273 C.2     1  UNL1        0.2275
      9 O         143.7379  141.3234  162.3720 O.2     1  UNL1       -0.2748
     10 C         141.9571  143.6273  160.8207 C.3     1  UNL1        0.1131
     11 C         143.7813  141.1916  163.5187 C.ar    1  UNL1        0.0877
     12 C         144.3592  142.5581  163.2977 C.ar    1  UNL1        0.0147
     13 C         143.5187  143.6373  162.6823 C.ar    1  UNL1        0.0350
     14 C         142.1002  143.3501  162.2879 C.ar    1  UNL1        0.1317
     15 N         141.5223  141.9837  162.5089 N.ar    1  UNL1       -0.2285
     16 C         142.3629  140.9044  163.1243 C.ar    1  UNL1        0.1105
     17 N         145.4623  139.0331  164.7494 N.1     1  UNL1       -0.1908
     18 C         144.6218  140.1124  164.1340 C.1     1  UNL1        0.1020
     19 C         142.8868  142.2335  164.4183 C.3     1  UNL1        0.1110
     20 C         141.9603  143.0339  165.2849 C.3     1  UNL1        0.1655
     21 S         141.2273  142.3699  166.4127 S.O2    1  UNL1        0.0097
     22 O         142.3995  141.4620  166.6400 O.2     1  UNL1       -0.1686
     23 O         140.0550  143.2778  166.1854 O.2     1  UNL1       -0.1686
     24 C         140.4943  141.7059  167.5405 C.ar    1  UNL1        0.1131
     25 C         140.6712  142.2019  168.9450 C.ar    1  UNL1        0.0190
     26 C         139.9383  141.5379  170.0727 C.ar    1  UNL1        0.0029
     27 C         139.0284  140.3779  169.7960 C.ar    1  UNL1        0.0197
     28 C         138.8515  139.8820  168.3915 C.ar    1  UNL1        0.0892
     29 N         138.0282  138.7675  167.8169 N.ar    1  UNL1       -0.2362
     30 C         138.2523  138.7428  166.3339 C.ar    1  UNL1        0.1345
     31 S         139.2141  139.8419  165.9921 S.2     1  UNL1       -0.0632
     32 C         139.5844  140.5460  167.2637 C.ar    1  UNL1        0.0656
@<TRIPOS>BOND
     1    17    18    3
     2    18    11    1
     3    11    12   ar
     4    12    13   ar
     5    13    14   ar
     6    14     1    1
     7     1     2    1
     8     2     3    1
     9     3     4    1
    10     4     5    1
    11     5     6    1
    12     6     7    1
    13     7     8   am
    14     8     9    2
    15     8    19    1
    16    19    20    1
    17    20    21    1
    18    21    22    2
    19    21    23    2
    20    21    24    1
    21    24    25   ar
    22    25    26   ar
    23    26    27   ar
    24    27    28   ar
    25    28    29   ar
    26    29    30   ar
    27    30    31   ar
    28    31    32   ar
    29     7    10    1
    30    14    15   ar
    31    15    16   ar
    32    16    11   ar
    33     5     1    1
    34    32    24   ar
    35    10     2    1
    36    32    28   ar
@<TRIPOS>MOLECULE
*****
 32 36 0 0 0
SMALL
GASTEIGER

@<TRIPOS>ATOM
      1 N         140.2695  141.6188  168.5077 N.pl3   1  UNL1       -0.2931
      2 C         139.6809  141.2547  169.8385 C.3     1  UNL1        0.0940
      3 C         139.7395  142.4678  170.7188 C.3     1  UNL1        0.0233
      4 C         140.3643  143.5817  169.9320 C.3     1  UNL1        0.0233
      5 C         140.6919  143.0570  168.5655 C.3     1  UNL1        0.0940
      6 C         140.9045  142.2703  167.2946 C.3     1  UNL1        0.1131
      7 N         140.4341  140.8489  167.3853 N.am    1  UNL1       -0.2761
      8 C         140.5755  139.9353  166.2040 C.2     1  UNL1        0.2275
      9 O         140.2243  138.4994  165.9493 O.2     1  UNL1       -0.2748
     10 C         139.8223  140.3410  168.6572 C.3     1  UNL1        0.1131
     11 C         140.6938  138.8777  164.9642 C.ar    1  UNL1        0.0877
     12 C         141.8227  139.0202  165.9416 C.ar    1  UNL1        0.0147
     13 C         141.6812  139.9339  167.1227 C.ar    1  UNL1        0.0350
     14 C         140.4109  140.7051  167.3264 C.ar    1  UNL1        0.1317
     15 N         139.2820  140.5626  166.3491 N.ar    1  UNL1       -0.2285
     16 C         139.4235  139.6489  165.1679 C.ar    1  UNL1        0.1105
     17 N         140.9765  137.0503  162.6019 N.1     1  UNL1       -0.1908
     18 C         140.8352  137.9641  163.7830 C.1     1  UNL1        0.1020
     19 C         141.1873  140.4431  164.9321 C.3     1  UNL1        0.1110
     20 C         141.4606  141.9084  164.7643 C.3     1  UNL1        0.1655
     21 S         141.5459  142.5028  163.3897 S.O2    1  UNL1        0.0097
     22 O         142.7490  143.2954  163.8072 O.2     1  UNL1       -0.1686
     23 O         140.3428  141.7102  162.9722 O.2     1  UNL1       -0.1686
     24 C         141.6313  143.0972  162.0151 C.ar    1  UNL1        0.1131
     25 C         142.5085  142.4629  160.9768 C.ar    1  UNL1        0.0190
     26 C         142.5938  143.0573  159.6023 C.ar    1  UNL1        0.0029
     27 C         141.8020  144.2861  159.2660 C.ar    1  UNL1        0.0197
     28 C         140.9249  144.9205  160.3044 C.ar    1  UNL1        0.0892
     29 N         140.0349  146.1273  160.2651 N.ar    1  UNL1       -0.2362
     30 C         139.3994  146.2787  161.6154 C.ar    1  UNL1        0.1345
     31 S         139.8967  145.1655  162.4892 S.2     1  UNL1       -0.0632
     32 C         140.8395  144.3261  161.6789 C.ar    1  UNL1        0.0656
@<TRIPOS>BOND
     1    17    18    3
     2    18    11    1
     3    11    12   ar
     4    12    13   ar
     5    13    14   ar
     6    14     1    1
     7     1     2    1
     8     2     3    1
     9     3     4    1
    10     4     5    1
    11     5     6    1
    12     6     7    1
    13     7     8   am
    14     8     9    2
    15     8    19    1
    16    19    20    1
    17    20    21    1
    18    21    22    2
    19    21    23    2
    20    21    24    1
    21    24    25   ar
    22    25    26   ar
    23    26    27   ar
    24    27    28   ar
    25    28    29   ar
    26    29    30   ar
    27    30    31   ar
    28    31    32   ar
    29     7    10    1
    30    14    15   ar
    31    15    16   ar
    32    16    11   ar
    33     5     1    1
    34    32    24   ar
    35    10     2    1
    36    32    28   ar
