@<TRIPOS>MOLECULE
*****
 42 45 0 0 0
SMALL
GASTEIGER

@<TRIPOS>ATOM
      1 C         139.1823  139.4086  166.4402 C.3     1  UNL1        0.1464
      2 O         137.8256  138.8900  166.8150 O.3     1  UNL1       -0.3813
      3 H         137.7807  138.7668  167.7761 H       1  UNL1        0.2105
      4 C         140.2123  139.6516  167.5033 C.3     1  UNL1        0.1266
      5 N         140.6088  141.0544  167.8567 N.3     1  UNL1       -0.1530
      6 S         141.3136  141.9114  166.8474 S.O2    1  UNL1        0.0634
      7 O         142.5827  141.1480  167.0854 O.2     1  UNL1       -0.1528
      8 O         140.0445  142.6748  166.6094 O.2     1  UNL1       -0.1528
      9 C         142.0184  142.7685  165.8381 C.ar    1  UNL1        0.1223
     10 C         141.2261  143.5343  164.8205 C.ar    1  UNL1        0.0212
     11 C         141.9309  144.3914  163.8111 C.ar    1  UNL1        0.0155
     12 C         143.4281  144.4826  163.8195 C.ar    1  UNL1        0.0416
     13 N         144.1329  145.3396  162.8101 N.pl3   1  UNL1       -0.3570
     14 C         144.2205  143.7167  164.8371 C.ar    1  UNL1        0.0155
     15 C         143.5157  142.8596  165.8464 C.ar    1  UNL1        0.0212
     16 H         143.6128  145.8423  162.1422 H       1  UNL1        0.1424
     17 H         145.1155  145.3994  162.8156 H       1  UNL1        0.1424
     18 C         140.3005  141.6002  169.2195 C.3     1  UNL1        0.0958
     19 C         140.3889  144.1322  169.7944 C.3     1  UNL1        0.0015
     20 C         141.0535  142.7887  169.7394 C.3     1  UNL1        0.0178
     21 C         142.4712  142.6336  170.2043 C.3     1  UNL1        0.0015
     22 C         139.5089  139.6841  165.0024 C.3     1  UNL1        0.1073
     23 N         138.8441  140.8227  164.2872 N.am    1  UNL1       -0.2695
     24 C         137.9784  140.5544  163.0919 C.2     1  UNL1        0.4016
     25 O         137.7775  139.1476  162.6119 O.2     1  UNL1       -0.2264
     26 H         138.9759  141.7460  164.6022 H       1  UNL1        0.1528
     27 O         137.3135  141.6931  162.3767 O.3     1  UNL1       -0.4357
     28 C         138.0507  142.9835  162.1730 C.3     1  UNL1        0.2048
     29 C         137.7690  144.2798  162.8732 C.3     1  UNL1        0.1884
     30 O         138.7431  145.3016  162.3662 O.3     1  UNL1       -0.3265
     31 C         139.6268  144.6369  161.3527 C.3     1  UNL1        0.2388
     32 O         140.7750  144.8575  160.4130 O.3     1  UNL1       -0.3304
     33 C         141.0566  143.5612  159.7129 C.3     1  UNL1        0.1451
     34 C         140.0825  142.5394  160.2198 C.3     1  UNL1        0.0409
     35 C         139.1988  143.2042  161.2333 C.3     1  UNL1        0.1016
     36 C         140.5005  138.8211  164.2799 C.3     1  UNL1        0.0485
     37 C         141.8538  139.3652  163.9300 C.ar    1  UNL1       -0.0204
     38 C         143.0714  138.8681  164.6514 C.ar    1  UNL1       -0.0042
     39 C         144.4247  139.4122  164.3016 C.ar    1  UNL1       -0.0003
     40 C         144.5605  140.4534  163.2304 C.ar    1  UNL1       -0.0000
     41 C         143.3429  140.9506  162.5091 C.ar    1  UNL1       -0.0003
     42 C         141.9895  140.4064  162.8589 C.ar    1  UNL1       -0.0042
@<TRIPOS>BOND
     1    19    20    1
     2    20    21    1
     3    20    18    1
     4    18     5    1
     5     5     4    1
     6     4     1    1
     7     1     2    1
     8     1    22    1
     9    22    36    1
    10    36    37    1
    11    37    38   ar
    12    38    39   ar
    13    39    40   ar
    14    40    41   ar
    15    41    42   ar
    16    22    23    1
    17    23    24   am
    18    24    25    2
    19    24    27    1
    20    28    27    1
    21    28    29    1
    22    29    30    1
    23    31    30    1
    24    31    32    1
    25    32    33    1
    26    33    34    1
    27    35    34    1
    28     5     6    1
    29     6     7    2
    30     6     8    2
    31     6     9    1
    32     9    10   ar
    33    10    11   ar
    34    11    12   ar
    35    12    13    1
    36    12    14   ar
    37    14    15   ar
    38    42    37   ar
    39    35    28    1
    40    15     9   ar
    41    35    31    1
    42     2     3    1
    43    23    26    1
    44    13    16    1
    45    13    17    1
@<TRIPOS>MOLECULE
*****
 42 45 0 0 0
SMALL
GASTEIGER

@<TRIPOS>ATOM
      1 C         141.7619  144.2272  160.9835 C.3     1  UNL1        0.1464
      2 O         141.5130  145.5465  160.3145 O.3     1  UNL1       -0.3813
      3 H         142.1075  145.6405  159.5537 H       1  UNL1        0.2105
      4 C         142.8070  143.2971  160.4422 C.3     1  UNL1        0.1266
      5 N         142.5852  141.8142  160.4834 N.3     1  UNL1       -0.1530
      6 S         142.8808  141.0462  161.7374 S.O2    1  UNL1        0.0634
      7 O         141.5482  140.3653  161.6345 O.2     1  UNL1       -0.1528
      8 O         144.2134  141.7271  161.8403 O.2     1  UNL1       -0.1528
      9 C         143.1764  140.2782  162.9915 C.ar    1  UNL1        0.1223
     10 C         144.5966  140.0753  163.4296 C.ar    1  UNL1        0.0212
     11 C         144.8922  139.3073  164.6837 C.ar    1  UNL1        0.0155
     12 C         143.7677  138.7421  165.4997 C.ar    1  UNL1        0.0416
     13 N         144.0633  137.9740  166.7538 N.pl3   1  UNL1       -0.3570
     14 C         142.3474  138.9449  165.0616 C.ar    1  UNL1        0.0155
     15 C         142.0518  139.7130  163.8076 C.ar    1  UNL1        0.0212
     16 H         144.9954  137.8409  167.0413 H       1  UNL1        0.1424
     17 H         143.3252  137.6031  167.2894 H       1  UNL1        0.1424
     18 C         142.0677  141.0993  159.2704 C.3     1  UNL1        0.0958
     19 C         139.6795  141.9042  158.6393 C.3     1  UNL1        0.0015
     20 C         141.1422  141.8032  158.3228 C.3     1  UNL1        0.0178
     21 C         141.6795  142.4062  157.0588 C.3     1  UNL1        0.0015
     22 C         140.9659  143.8379  162.1937 C.3     1  UNL1        0.1073
     23 N         139.8986  142.7897  162.0840 N.am    1  UNL1       -0.2695
     24 C         138.4522  143.1830  162.1418 C.2     1  UNL1        0.4016
     25 O         138.0731  144.6246  162.3092 O.2     1  UNL1       -0.2264
     26 H         140.1474  141.8435  161.9741 H       1  UNL1        0.1528
     27 O         137.3850  142.1346  162.0320 O.3     1  UNL1       -0.4357
     28 C         137.7406  140.6845  162.1755 C.3     1  UNL1        0.2048
     29 C         137.7917  139.6753  161.0668 C.3     1  UNL1        0.1884
     30 O         138.1902  138.3560  161.6589 O.3     1  UNL1       -0.3265
     31 C         138.3854  138.5497  163.1335 C.3     1  UNL1        0.2388
     32 O         138.7523  137.8540  164.4108 O.3     1  UNL1       -0.3304
     33 C         138.7012  138.8632  165.5194 C.3     1  UNL1        0.1451
     34 C         138.3027  140.1825  164.9273 C.3     1  UNL1        0.0409
     35 C         138.1075  139.9888  163.4527 C.3     1  UNL1        0.1016
     36 C         141.2370  144.4969  163.5136 C.3     1  UNL1        0.0485
     37 C         141.8286  143.7033  164.6406 C.ar    1  UNL1       -0.0204
     38 C         143.3178  143.5750  164.7668 C.ar    1  UNL1       -0.0042
     39 C         143.9093  142.7814  165.8939 C.ar    1  UNL1       -0.0003
     40 C         143.0117  142.1161  166.8947 C.ar    1  UNL1       -0.0000
     41 C         141.5226  142.2445  166.7686 C.ar    1  UNL1       -0.0003
     42 C         140.9310  143.0381  165.6415 C.ar    1  UNL1       -0.0042
@<TRIPOS>BOND
     1    19    20    1
     2    20    21    1
     3    20    18    1
     4    18     5    1
     5     5     4    1
     6     4     1    1
     7     1     2    1
     8     1    22    1
     9    22    36    1
    10    36    37    1
    11    37    38   ar
    12    38    39   ar
    13    39    40   ar
    14    40    41   ar
    15    41    42   ar
    16    22    23    1
    17    23    24   am
    18    24    25    2
    19    24    27    1
    20    28    27    1
    21    28    29    1
    22    29    30    1
    23    31    30    1
    24    31    32    1
    25    32    33    1
    26    33    34    1
    27    35    34    1
    28     5     6    1
    29     6     7    2
    30     6     8    2
    31     6     9    1
    32     9    10   ar
    33    10    11   ar
    34    11    12   ar
    35    12    13    1
    36    12    14   ar
    37    14    15   ar
    38    42    37   ar
    39    35    28    1
    40    15     9   ar
    41    35    31    1
    42     2     3    1
    43    23    26    1
    44    13    16    1
    45    13    17    1
@<TRIPOS>MOLECULE
*****
 42 45 0 0 0
SMALL
GASTEIGER

@<TRIPOS>ATOM
      1 C         144.0987  141.7270  164.6167 C.3     1  UNL1        0.1464
      2 O         145.4819  142.2206  164.3115 O.3     1  UNL1       -0.3813
      3 H         145.9217  141.5990  163.7106 H       1  UNL1        0.2105
      4 C         143.6084  140.4462  164.0090 C.3     1  UNL1        0.1266
      5 N         142.2161  140.3626  163.4572 N.3     1  UNL1       -0.1530
      6 S         141.1144  139.7734  164.2874 S.O2    1  UNL1        0.0634
      7 O         140.2602  140.9738  164.0058 O.2     1  UNL1       -0.1528
      8 O         141.9686  138.5729  164.5689 O.2     1  UNL1       -0.1528
      9 C         140.0127  139.1841  165.1175 C.ar    1  UNL1        0.1223
     10 C         139.3903  139.9902  166.2188 C.ar    1  UNL1        0.0212
     11 C         138.2887  139.4009  167.0489 C.ar    1  UNL1        0.0155
     12 C         137.8094  138.0057  166.7778 C.ar    1  UNL1        0.0416
     13 N         136.7077  137.4165  167.6079 N.pl3   1  UNL1       -0.3570
     14 C         138.4317  137.1996  165.6764 C.ar    1  UNL1        0.0155
     15 C         139.5334  137.7888  164.8463 C.ar    1  UNL1        0.0212
     16 H         136.2992  137.9456  168.3307 H       1  UNL1        0.1424
     17 H         136.3931  136.5008  167.4299 H       1  UNL1        0.1424
     18 C         141.9254  140.8682  162.0752 C.3     1  UNL1        0.0958
     19 C         142.5318  138.9672  160.4113 C.3     1  UNL1        0.0015
     20 C         142.7268  140.3685  160.9098 C.3     1  UNL1        0.0178
     21 C         143.7230  141.2700  160.2429 C.3     1  UNL1        0.0015
     22 C         143.2058  142.5142  165.5293 C.3     1  UNL1        0.1073
     23 N         142.0789  143.3245  164.9606 N.am    1  UNL1       -0.2695
     24 C         142.3728  144.5260  164.1120 C.2     1  UNL1        0.4016
     25 O         143.7936  144.9172  163.8323 O.2     1  UNL1       -0.2264
     26 H         141.1464  143.0677  165.1442 H       1  UNL1        0.1528
     27 O         141.2458  145.3363  163.5432 O.3     1  UNL1       -0.4357
     28 C         139.9047  144.7027  163.3201 C.3     1  UNL1        0.2048
     29 C         138.7588  144.6999  164.2882 C.3     1  UNL1        0.1884
     30 O         137.6198  143.9561  163.6560 O.3     1  UNL1       -0.3265
     31 C         138.0617  143.4993  162.2973 C.3     1  UNL1        0.2388
     32 O         137.6308  142.7573  161.0669 O.3     1  UNL1       -0.3304
     33 C         138.7766  142.7602  160.0989 C.3     1  UNL1        0.1451
     34 C         139.9157  143.5039  160.7310 C.3     1  UNL1        0.0409
     35 C         139.4738  143.9607  162.0897 C.3     1  UNL1        0.1016
     36 C         143.4397  142.4911  167.0108 C.3     1  UNL1        0.0485
     37 C         142.4622  141.7991  167.9138 C.ar    1  UNL1       -0.0204
     38 C         142.6647  140.3571  168.2738 C.ar    1  UNL1       -0.0042
     39 C         141.6871  139.6651  169.1768 C.ar    1  UNL1       -0.0003
     40 C         140.5070  140.4151  169.7198 C.ar    1  UNL1       -0.0000
     41 C         140.3045  141.8571  169.3599 C.ar    1  UNL1       -0.0003
     42 C         141.2821  142.5491  168.4568 C.ar    1  UNL1       -0.0042
@<TRIPOS>BOND
     1    19    20    1
     2    20    21    1
     3    20    18    1
     4    18     5    1
     5     5     4    1
     6     4     1    1
     7     1     2    1
     8     1    22    1
     9    22    36    1
    10    36    37    1
    11    37    38   ar
    12    38    39   ar
    13    39    40   ar
    14    40    41   ar
    15    41    42   ar
    16    22    23    1
    17    23    24   am
    18    24    25    2
    19    24    27    1
    20    28    27    1
    21    28    29    1
    22    29    30    1
    23    31    30    1
    24    31    32    1
    25    32    33    1
    26    33    34    1
    27    35    34    1
    28     5     6    1
    29     6     7    2
    30     6     8    2
    31     6     9    1
    32     9    10   ar
    33    10    11   ar
    34    11    12   ar
    35    12    13    1
    36    12    14   ar
    37    14    15   ar
    38    42    37   ar
    39    35    28    1
    40    15     9   ar
    41    35    31    1
    42     2     3    1
    43    23    26    1
    44    13    16    1
    45    13    17    1
@<TRIPOS>MOLECULE
*****
 42 45 0 0 0
SMALL
GASTEIGER

@<TRIPOS>ATOM
      1 C         144.9538  141.3548  162.8310 C.3     1  UNL1        0.1464
      2 O         146.3526  141.8550  163.0389 O.3     1  UNL1       -0.3813
      3 H         146.8391  141.2309  163.5998 H       1  UNL1        0.2105
      4 C         144.5173  140.0649  163.4601 C.3     1  UNL1        0.1266
      5 N         143.1640  139.9621  164.0988 N.3     1  UNL1       -0.1530
      6 S         142.9990  140.2632  165.5590 S.O2    1  UNL1        0.0634
      7 O         142.5103  141.6402  165.2198 O.2     1  UNL1       -0.1528
      8 O         143.4877  138.8862  165.8981 O.2     1  UNL1       -0.1528
      9 C         142.8340  140.5643  167.0191 C.ar    1  UNL1        0.1223
     10 C         142.8555  141.9853  167.4990 C.ar    1  UNL1        0.0212
     11 C         142.6904  142.2864  168.9592 C.ar    1  UNL1        0.0155
     12 C         142.5039  141.1665  169.9395 C.ar    1  UNL1        0.0416
     13 N         142.3389  141.4676  171.3997 N.pl3   1  UNL1       -0.3570
     14 C         142.4824  139.7454  169.4596 C.ar    1  UNL1        0.0155
     15 C         142.6475  139.4443  167.9995 C.ar    1  UNL1        0.0212
     16 H         142.3530  142.4003  171.7146 H       1  UNL1        0.1424
     17 H         142.2165  140.7326  172.0431 H       1  UNL1        0.1424
     18 C         141.9757  139.5583  163.2773 C.3     1  UNL1        0.0958
     19 C         142.3912  137.7616  161.4473 C.3     1  UNL1        0.0015
     20 C         141.8455  138.1454  162.7907 C.3     1  UNL1        0.0178
     21 C         141.1695  137.1163  163.6475 C.3     1  UNL1        0.0015
     22 C         143.9915  142.1444  161.9941 C.3     1  UNL1        0.1073
     23 N         142.9383  142.9845  162.6535 N.am    1  UNL1       -0.2695
     24 C         143.1905  144.4413  162.9065 C.2     1  UNL1        0.4016
     25 O         144.4959  145.0582  162.4999 O.2     1  UNL1       -0.2264
     26 H         142.0815  142.5797  162.9204 H       1  UNL1        0.1528
     27 O         142.1371  145.2814  163.5660 O.3     1  UNL1       -0.4357
     28 C         140.7143  145.2045  163.0972 C.3     1  UNL1        0.2048
     29 C         140.0994  146.0310  162.0068 C.3     1  UNL1        0.1884
     30 O         138.6616  145.6249  161.8723 O.3     1  UNL1       -0.3265
     31 C         138.3880  144.5475  162.8795 C.3     1  UNL1        0.2388
     32 O         137.3304  143.6307  163.4188 O.3     1  UNL1       -0.3304
     33 C         137.9454  142.8043  164.5091 C.3     1  UNL1        0.1451
     34 C         139.3831  143.2104  164.6437 C.3     1  UNL1        0.0409
     35 C         139.6567  144.2877  163.6365 C.3     1  UNL1        0.1016
     36 C         144.0825  142.0940  160.4977 C.3     1  UNL1        0.0485
     37 C         143.2047  141.1555  159.7241 C.ar    1  UNL1       -0.0204
     38 C         143.8139  140.1842  158.7568 C.ar    1  UNL1       -0.0042
     39 C         142.9360  139.2457  157.9833 C.ar    1  UNL1       -0.0003
     40 C         141.4489  139.2784  158.1769 C.ar    1  UNL1       -0.0000
     41 C         140.8397  140.2495  159.1442 C.ar    1  UNL1       -0.0003
     42 C         141.7176  141.1881  159.9178 C.ar    1  UNL1       -0.0042
@<TRIPOS>BOND
     1    19    20    1
     2    20    21    1
     3    20    18    1
     4    18     5    1
     5     5     4    1
     6     4     1    1
     7     1     2    1
     8     1    22    1
     9    22    36    1
    10    36    37    1
    11    37    38   ar
    12    38    39   ar
    13    39    40   ar
    14    40    41   ar
    15    41    42   ar
    16    22    23    1
    17    23    24   am
    18    24    25    2
    19    24    27    1
    20    28    27    1
    21    28    29    1
    22    29    30    1
    23    31    30    1
    24    31    32    1
    25    32    33    1
    26    33    34    1
    27    35    34    1
    28     5     6    1
    29     6     7    2
    30     6     8    2
    31     6     9    1
    32     9    10   ar
    33    10    11   ar
    34    11    12   ar
    35    12    13    1
    36    12    14   ar
    37    14    15   ar
    38    42    37   ar
    39    35    28    1
    40    15     9   ar
    41    35    31    1
    42     2     3    1
    43    23    26    1
    44    13    16    1
    45    13    17    1
@<TRIPOS>MOLECULE
*****
 42 45 0 0 0
SMALL
GASTEIGER

@<TRIPOS>ATOM
      1 C         143.7820  139.7615  163.0904 C.3     1  UNL1        0.1464
      2 O         145.0213  139.1395  163.6623 O.3     1  UNL1       -0.3813
      3 H         145.8030  139.5301  163.2414 H       1  UNL1        0.2105
      4 C         143.8933  140.8180  162.0313 C.3     1  UNL1        0.1266
      5 N         143.5525  142.2426  162.3543 N.3     1  UNL1       -0.1530
      6 S         142.8509  143.0948  161.3387 S.O2    1  UNL1        0.0634
      7 O         142.0272  141.9142  160.9172 O.2     1  UNL1       -0.1528
      8 O         143.6747  144.2753  161.7602 O.2     1  UNL1       -0.1528
      9 C         142.1493  143.9469  160.3230 C.ar    1  UNL1        0.1223
     10 C         141.0361  144.8578  160.7485 C.ar    1  UNL1        0.0212
     11 C         140.3345  145.7099  159.7329 C.ar    1  UNL1        0.0155
     12 C         140.7461  145.6512  158.2917 C.ar    1  UNL1        0.0416
     13 N         140.0445  146.5034  157.2760 N.pl3   1  UNL1       -0.3570
     14 C         141.8594  144.7404  157.8661 C.ar    1  UNL1        0.0155
     15 C         142.5610  143.8882  158.8817 C.ar    1  UNL1        0.0212
     16 H         139.3139  147.1012  157.5553 H       1  UNL1        0.1424
     17 H         140.3147  146.4649  156.3301 H       1  UNL1        0.1424
     18 C         143.9134  142.8151  163.6931 C.3     1  UNL1        0.0958
     19 C         143.4377  142.4770  166.2246 C.3     1  UNL1        0.0015
     20 C         142.9411  142.7298  164.8320 C.3     1  UNL1        0.0178
     21 C         141.4722  142.8972  164.5784 C.3     1  UNL1        0.0015
     22 C         142.4314  139.3272  163.5775 C.3     1  UNL1        0.1073
     23 N         141.1953  139.7626  162.8478 N.am    1  UNL1       -0.2695
     24 C         140.3690  138.7550  162.1048 C.2     1  UNL1        0.4016
     25 O         140.7787  137.3122  162.0915 O.2     1  UNL1       -0.2264
     26 H         140.9264  140.7096  162.8565 H       1  UNL1        0.1528
     27 O         139.1328  139.1904  161.3751 O.3     1  UNL1       -0.4357
     28 C         138.7369  140.6372  161.3674 C.3     1  UNL1        0.2048
     29 C         138.6669  141.5258  160.1608 C.3     1  UNL1        0.1884
     30 O         138.2281  142.8872  160.6127 O.3     1  UNL1       -0.3265
     31 C         138.0269  142.8400  162.0984 C.3     1  UNL1        0.2388
     32 O         137.6314  143.6523  163.2958 O.3     1  UNL1       -0.3304
     33 C         137.7014  142.7637  164.5023 C.3     1  UNL1        0.1451
     34 C         138.1402  141.4023  164.0505 C.3     1  UNL1        0.0409
     35 C         138.3414  141.4495  162.5648 C.3     1  UNL1        0.1016
     36 C         142.3169  138.4576  164.7943 C.3     1  UNL1        0.0485
     37 C         141.9284  139.0592  166.1123 C.ar    1  UNL1       -0.0204
     38 C         140.5739  139.6806  166.2829 C.ar    1  UNL1       -0.0042
     39 C         140.1854  140.2822  167.6009 C.ar    1  UNL1       -0.0003
     40 C         141.1514  140.2624  168.7483 C.ar    1  UNL1       -0.0000
     41 C         142.5059  139.6410  168.5777 C.ar    1  UNL1       -0.0003
     42 C         142.8945  139.0394  167.2596 C.ar    1  UNL1       -0.0042
@<TRIPOS>BOND
     1    19    20    1
     2    20    21    1
     3    20    18    1
     4    18     5    1
     5     5     4    1
     6     4     1    1
     7     1     2    1
     8     1    22    1
     9    22    36    1
    10    36    37    1
    11    37    38   ar
    12    38    39   ar
    13    39    40   ar
    14    40    41   ar
    15    41    42   ar
    16    22    23    1
    17    23    24   am
    18    24    25    2
    19    24    27    1
    20    28    27    1
    21    28    29    1
    22    29    30    1
    23    31    30    1
    24    31    32    1
    25    32    33    1
    26    33    34    1
    27    35    34    1
    28     5     6    1
    29     6     7    2
    30     6     8    2
    31     6     9    1
    32     9    10   ar
    33    10    11   ar
    34    11    12   ar
    35    12    13    1
    36    12    14   ar
    37    14    15   ar
    38    42    37   ar
    39    35    28    1
    40    15     9   ar
    41    35    31    1
    42     2     3    1
    43    23    26    1
    44    13    16    1
    45    13    17    1
@<TRIPOS>MOLECULE
*****
 42 45 0 0 0
SMALL
GASTEIGER

@<TRIPOS>ATOM
      1 C         142.8023  138.9844  166.1363 C.3     1  UNL1        0.1464
      2 O         144.1218  138.4352  166.5915 O.3     1  UNL1       -0.3813
      3 H         144.1084  138.3180  167.5543 H       1  UNL1        0.2105
      4 C         141.7195  139.2607  167.1370 C.3     1  UNL1        0.1266
      5 N         141.3439  140.6755  167.4643 N.3     1  UNL1       -0.1530
      6 S         140.5763  141.4967  166.4711 S.O2    1  UNL1        0.0634
      7 O         141.7631  142.3978  166.2989 O.2     1  UNL1       -0.1528
      8 O         139.3896  140.5956  166.6433 O.2     1  UNL1       -0.1528
      9 C         139.8087  142.3178  165.4779 C.ar    1  UNL1        0.1223
     10 C         139.2760  141.6797  164.2293 C.ar    1  UNL1        0.0212
     11 C         138.5084  142.5008  163.2361 C.ar    1  UNL1        0.0155
     12 C         138.2735  143.9601  163.4914 C.ar    1  UNL1        0.0416
     13 N         137.5059  144.7813  162.4982 N.pl3   1  UNL1       -0.3570
     14 C         138.8062  144.5983  164.7400 C.ar    1  UNL1        0.0155
     15 C         139.5738  143.7772  165.7333 C.ar    1  UNL1        0.0212
     16 H         137.1563  144.3624  161.6787 H       1  UNL1        0.1424
     17 H         137.3517  145.7391  162.6658 H       1  UNL1        0.1424
     18 C         141.7360  141.2693  168.7849 C.3     1  UNL1        0.0958
     19 C         140.9497  143.5507  169.7474 C.3     1  UNL1        0.0015
     20 C         140.7435  142.0758  169.5688 C.3     1  UNL1        0.0178
     21 C         139.5449  141.4073  170.1742 C.3     1  UNL1        0.0015
     22 C         142.5655  139.2574  164.6805 C.3     1  UNL1        0.1073
     23 N         142.9218  140.5939  164.1005 N.am    1  UNL1       -0.2695
     24 C         144.3607  140.9578  163.8832 C.2     1  UNL1        0.4016
     25 O         145.4433  139.9850  164.2461 O.2     1  UNL1       -0.2264
     26 H         142.2112  141.2324  163.8623 H       1  UNL1        0.1528
     27 O         144.7170  142.2945  163.3031 O.3     1  UNL1       -0.4357
     28 C         143.6894  143.3859  163.2476 C.3     1  UNL1        0.2048
     29 C         143.5834  144.5459  164.1927 C.3     1  UNL1        0.1884
     30 O         142.4160  145.3859  163.7664 O.3     1  UNL1       -0.3265
     31 C         141.8005  144.7449  162.5579 C.3     1  UNL1        0.2388
     32 O         140.6987  144.8680  161.5476 O.3     1  UNL1       -0.3304
     33 C         140.8047  143.7080  160.6026 C.3     1  UNL1        0.1451
     34 C         141.9721  142.8680  161.0288 C.3     1  UNL1        0.0409
     35 C         142.5876  143.5089  162.2373 C.3     1  UNL1        0.1016
     36 C         141.9724  138.1937  163.8048 C.3     1  UNL1        0.0485
     37 C         140.7846  138.5070  162.9441 C.ar    1  UNL1       -0.0204
     38 C         140.9473  139.3661  161.7252 C.ar    1  UNL1       -0.0042
     39 C         139.7595  139.6794  160.8645 C.ar    1  UNL1       -0.0003
     40 C         138.4090  139.1336  161.2225 C.ar    1  UNL1       -0.0000
     41 C         138.2463  138.2745  162.4413 C.ar    1  UNL1       -0.0003
     42 C         139.4341  137.9612  163.3021 C.ar    1  UNL1       -0.0042
@<TRIPOS>BOND
     1    19    20    1
     2    20    21    1
     3    20    18    1
     4    18     5    1
     5     5     4    1
     6     4     1    1
     7     1     2    1
     8     1    22    1
     9    22    36    1
    10    36    37    1
    11    37    38   ar
    12    38    39   ar
    13    39    40   ar
    14    40    41   ar
    15    41    42   ar
    16    22    23    1
    17    23    24   am
    18    24    25    2
    19    24    27    1
    20    28    27    1
    21    28    29    1
    22    29    30    1
    23    31    30    1
    24    31    32    1
    25    32    33    1
    26    33    34    1
    27    35    34    1
    28     5     6    1
    29     6     7    2
    30     6     8    2
    31     6     9    1
    32     9    10   ar
    33    10    11   ar
    34    11    12   ar
    35    12    13    1
    36    12    14   ar
    37    14    15   ar
    38    42    37   ar
    39    35    28    1
    40    15     9   ar
    41    35    31    1
    42     2     3    1
    43    23    26    1
    44    13    16    1
    45    13    17    1
@<TRIPOS>MOLECULE
*****
 42 45 0 0 0
SMALL
GASTEIGER

@<TRIPOS>ATOM
      1 C         140.2117  145.3841  161.0116 C.3     1  UNL1        0.1464
      2 O         139.1944  146.4596  160.7702 O.3     1  UNL1       -0.3813
      3 H         139.3110  146.8204  159.8774 H       1  UNL1        0.2105
      4 C         141.1975  145.0295  159.9380 C.3     1  UNL1        0.1266
      5 N         141.4521  143.5907  159.5990 N.3     1  UNL1       -0.1530
      6 S         142.2110  142.7180  160.5542 S.O2    1  UNL1        0.0634
      7 O         143.3060  143.7411  160.6189 O.2     1  UNL1       -0.1528
      8 O         141.1160  141.6949  160.4894 O.2     1  UNL1       -0.1528
      9 C         142.9699  141.8453  161.5094 C.ar    1  UNL1        0.1223
     10 C         144.4494  142.0266  161.6774 C.ar    1  UNL1        0.0212
     11 C         145.2083  141.1539  162.6326 C.ar    1  UNL1        0.0155
     12 C         144.4877  140.0999  163.4198 C.ar    1  UNL1        0.0416
     13 N         145.2467  139.2271  164.3750 N.pl3   1  UNL1       -0.3570
     14 C         143.0082  139.9185  163.2518 C.ar    1  UNL1        0.0155
     15 C         142.2493  140.7912  162.2966 C.ar    1  UNL1        0.0212
     16 H         146.2177  139.3462  164.4853 H       1  UNL1        0.1424
     17 H         144.7737  138.5353  164.8917 H       1  UNL1        0.1424
     18 C         140.9476  143.0245  158.3047 C.3     1  UNL1        0.0958
     19 C         138.3888  142.6697  158.5806 C.3     1  UNL1        0.0015
     20 C         139.5422  143.3036  157.8611 C.3     1  UNL1        0.0178
     21 C         139.2902  144.2167  156.6980 C.3     1  UNL1        0.0015
     22 C         140.2433  144.6632  162.3266 C.3     1  UNL1        0.1073
     23 N         139.4647  143.3936  162.5048 N.am    1  UNL1       -0.2695
     24 C         137.9787  143.4466  162.7028 C.2     1  UNL1        0.4016
     25 O         137.2715  144.7692  162.7226 O.2     1  UNL1       -0.2264
     26 H         139.9289  142.5255  162.4917 H       1  UNL1        0.1528
     27 O         137.2001  142.1769  162.8809 O.3     1  UNL1       -0.4357
     28 C         137.9008  140.9209  163.3067 C.3     1  UNL1        0.2048
     29 C         138.2244  140.5268  164.7175 C.3     1  UNL1        0.1884
     30 O         138.9245  139.2007  164.6792 O.3     1  UNL1       -0.3265
     31 C         139.0336  138.7753  163.2449 C.3     1  UNL1        0.2388
     32 O         139.5338  137.6928  162.3349 O.3     1  UNL1       -0.3304
     33 C         139.2101  138.0870  160.9243 C.3     1  UNL1        0.1451
     34 C         138.5100  139.4130  160.9625 C.3     1  UNL1        0.0409
     35 C         138.4009  139.8384  162.3967 C.3     1  UNL1        0.1016
     36 C         141.0536  145.2118  163.4635 C.3     1  UNL1        0.0485
     37 C         141.9039  144.2934  164.2902 C.ar    1  UNL1       -0.0204
     38 C         141.2610  143.2331  165.1343 C.ar    1  UNL1       -0.0042
     39 C         142.1113  142.3147  165.9611 C.ar    1  UNL1       -0.0003
     40 C         143.6044  142.4566  165.9438 C.ar    1  UNL1       -0.0000
     41 C         144.2474  143.5169  165.0998 C.ar    1  UNL1       -0.0003
     42 C         143.3971  144.4354  164.2730 C.ar    1  UNL1       -0.0042
@<TRIPOS>BOND
     1    19    20    1
     2    20    21    1
     3    20    18    1
     4    18     5    1
     5     5     4    1
     6     4     1    1
     7     1     2    1
     8     1    22    1
     9    22    36    1
    10    36    37    1
    11    37    38   ar
    12    38    39   ar
    13    39    40   ar
    14    40    41   ar
    15    41    42   ar
    16    22    23    1
    17    23    24   am
    18    24    25    2
    19    24    27    1
    20    28    27    1
    21    28    29    1
    22    29    30    1
    23    31    30    1
    24    31    32    1
    25    32    33    1
    26    33    34    1
    27    35    34    1
    28     5     6    1
    29     6     7    2
    30     6     8    2
    31     6     9    1
    32     9    10   ar
    33    10    11   ar
    34    11    12   ar
    35    12    13    1
    36    12    14   ar
    37    14    15   ar
    38    42    37   ar
    39    35    28    1
    40    15     9   ar
    41    35    31    1
    42     2     3    1
    43    23    26    1
    44    13    16    1
    45    13    17    1
@<TRIPOS>MOLECULE
*****
 42 45 0 0 0
SMALL
GASTEIGER

@<TRIPOS>ATOM
      1 C         142.9005  144.3656  163.3149 C.3     1  UNL1        0.1464
      2 O         143.8520  145.3875  162.7669 O.3     1  UNL1       -0.3813
      3 H         143.3587  146.1802  162.5036 H       1  UNL1        0.2105
      4 C         141.4328  144.6676  163.3826 C.3     1  UNL1        0.1266
      5 N         140.4396  143.6910  162.8261 N.3     1  UNL1       -0.1530
      6 S         139.9185  142.5785  163.6868 S.O2    1  UNL1        0.0634
      7 O         140.3889  141.5756  162.6753 O.2     1  UNL1       -0.1528
      8 O         139.4482  143.5813  164.6983 O.2     1  UNL1       -0.1528
      9 C         139.3975  141.4660  164.5475 C.ar    1  UNL1        0.1223
     10 C         138.5908  140.3592  163.9357 C.ar    1  UNL1        0.0212
     11 C         138.0697  139.2467  164.7964 C.ar    1  UNL1        0.0155
     12 C         138.3553  139.2409  166.2689 C.ar    1  UNL1        0.0416
     13 N         137.8343  138.1284  167.1296 N.pl3   1  UNL1       -0.3570
     14 C         139.1621  140.3477  166.8808 C.ar    1  UNL1        0.0155
     15 C         139.6832  141.4602  166.0201 C.ar    1  UNL1        0.0212
     16 H         137.3048  137.4020  166.7280 H       1  UNL1        0.1424
     17 H         138.0218  138.1246  168.0961 H       1  UNL1        0.1424
     18 C         139.9674  143.8269  161.4088 C.3     1  UNL1        0.0958
     19 C         140.8458  145.5056  159.6312 C.3     1  UNL1        0.0015
     20 C         140.9419  144.1787  160.3241 C.3     1  UNL1        0.0178
     21 C         142.0124  143.2038  159.9324 C.3     1  UNL1        0.0015
     22 C         143.4167  143.0416  163.7950 C.3     1  UNL1        0.1073
     23 N         143.3039  141.8299  162.9181 N.am    1  UNL1       -0.2695
     24 C         144.5411  141.1845  162.3678 C.2     1  UNL1        0.4016
     25 O         145.8911  141.7509  162.6943 O.2     1  UNL1       -0.2264
     26 H         142.4178  141.4582  162.7038 H       1  UNL1        0.1528
     27 O         144.4282  139.9728  161.4908 O.3     1  UNL1       -0.4357
     28 C         143.0786  139.4013  161.1714 C.3     1  UNL1        0.2048
     29 C         142.3378  139.5599  159.8767 C.3     1  UNL1        0.1884
     30 O         141.0342  138.8274  159.9959 O.3     1  UNL1       -0.3265
     31 C         140.9694  138.2160  161.3641 C.3     1  UNL1        0.2388
     32 O         140.1236  137.3855  162.2833 O.3     1  UNL1       -0.3304
     33 C         140.8644  137.2268  163.5779 C.3     1  UNL1        0.1451
     34 C         142.1680  137.9593  163.4588 C.3     1  UNL1        0.0409
     35 C         142.2329  138.5707  162.0906 C.3     1  UNL1        0.1016
     36 C         144.0458  142.9293  165.1521 C.3     1  UNL1        0.0485
     37 C         143.5144  141.9390  166.1455 C.ar    1  UNL1       -0.0204
     38 C         143.3313  140.5039  165.7493 C.ar    1  UNL1       -0.0042
     39 C         142.7999  139.5135  166.7427 C.ar    1  UNL1       -0.0003
     40 C         142.4516  139.9583  168.1322 C.ar    1  UNL1       -0.0000
     41 C         142.6348  141.3933  168.5285 C.ar    1  UNL1       -0.0003
     42 C         143.1662  142.3837  167.5351 C.ar    1  UNL1       -0.0042
@<TRIPOS>BOND
     1    19    20    1
     2    20    21    1
     3    20    18    1
     4    18     5    1
     5     5     4    1
     6     4     1    1
     7     1     2    1
     8     1    22    1
     9    22    36    1
    10    36    37    1
    11    37    38   ar
    12    38    39   ar
    13    39    40   ar
    14    40    41   ar
    15    41    42   ar
    16    22    23    1
    17    23    24   am
    18    24    25    2
    19    24    27    1
    20    28    27    1
    21    28    29    1
    22    29    30    1
    23    31    30    1
    24    31    32    1
    25    32    33    1
    26    33    34    1
    27    35    34    1
    28     5     6    1
    29     6     7    2
    30     6     8    2
    31     6     9    1
    32     9    10   ar
    33    10    11   ar
    34    11    12   ar
    35    12    13    1
    36    12    14   ar
    37    14    15   ar
    38    42    37   ar
    39    35    28    1
    40    15     9   ar
    41    35    31    1
    42     2     3    1
    43    23    26    1
    44    13    16    1
    45    13    17    1
@<TRIPOS>MOLECULE
*****
 42 45 0 0 0
SMALL
GASTEIGER

@<TRIPOS>ATOM
      1 C         143.4956  139.5548  162.0314 C.3     1  UNL1        0.1464
      2 O         144.6348  138.5792  162.0494 O.3     1  UNL1       -0.3813
      3 H         144.4904  137.9009  161.3712 H       1  UNL1        0.2105
      4 C         142.3720  139.3779  161.0535 C.3     1  UNL1        0.1266
      5 N         141.0284  139.9812  161.3376 N.3     1  UNL1       -0.1530
      6 S         140.2870  139.6066  162.5866 S.O2    1  UNL1        0.0634
      7 O         140.1242  141.0587  162.9254 O.2     1  UNL1       -0.1528
      8 O         140.4499  138.1545  162.2477 O.2     1  UNL1       -0.1528
      9 C         139.5456  139.2320  163.8356 C.ar    1  UNL1        0.1223
     10 C         138.9227  140.2987  164.6864 C.ar    1  UNL1        0.0212
     11 C         138.1813  139.9241  165.9354 C.ar    1  UNL1        0.0155
     12 C         138.0628  138.4828  166.3336 C.ar    1  UNL1        0.0416
     13 N         137.3214  138.1082  167.5826 N.pl3   1  UNL1       -0.3570
     14 C         138.6858  137.4160  165.4827 C.ar    1  UNL1        0.0155
     15 C         139.4272  137.7906  164.2337 C.ar    1  UNL1        0.0212
     16 H         136.9126  138.8084  168.1410 H       1  UNL1        0.1424
     17 H         137.2437  137.1622  167.8439 H       1  UNL1        0.1424
     18 C         140.4262  140.9591  160.3727 C.3     1  UNL1        0.0958
     19 C         140.0835  140.2260  157.9039 C.3     1  UNL1        0.0015
     20 C         139.5272  140.4728  159.2749 C.3     1  UNL1        0.0178
     21 C         138.0719  140.2332  159.5481 C.3     1  UNL1        0.0015
     22 C         143.4800  140.7074  162.9912 C.3     1  UNL1        0.1073
     23 N         142.9128  142.0294  162.5664 N.am    1  UNL1       -0.2695
     24 C         143.7819  143.0254  161.8573 C.2     1  UNL1        0.4016
     25 O         145.2181  142.6992  161.5729 O.2     1  UNL1       -0.2264
     26 H         141.9702  142.2435  162.7531 H       1  UNL1        0.1528
     27 O         143.2146  144.3475  161.4325 O.3     1  UNL1       -0.4357
     28 C         141.7306  144.5657  161.4449 C.3     1  UNL1        0.2048
     29 C         140.8603  144.7758  160.2414 C.3     1  UNL1        0.1884
     30 O         139.4482  144.9521  160.7157 O.3     1  UNL1       -0.3265
     31 C         139.4458  144.8509  162.2123 C.3     1  UNL1        0.2388
     32 O         138.5716  144.8974  163.4303 O.3     1  UNL1       -0.3304
     33 C         139.4420  144.6873  164.6338 C.3     1  UNL1        0.1451
     34 C         140.8541  144.5110  164.1595 C.3     1  UNL1        0.0409
     35 C         140.8564  144.6121  162.6629 C.3     1  UNL1        0.1016
     36 C         144.0315  140.5379  164.3758 C.3     1  UNL1        0.0485
     37 C         143.1265  140.6693  165.5648 C.ar    1  UNL1       -0.0204
     38 C         142.4841  139.4498  166.1568 C.ar    1  UNL1       -0.0042
     39 C         141.5792  139.5812  167.3458 C.ar    1  UNL1       -0.0003
     40 C         141.3167  140.9319  167.9430 C.ar    1  UNL1       -0.0000
     41 C         141.9590  142.1513  167.3511 C.ar    1  UNL1       -0.0003
     42 C         142.8640  142.0200  166.1620 C.ar    1  UNL1       -0.0042
@<TRIPOS>BOND
     1    19    20    1
     2    20    21    1
     3    20    18    1
     4    18     5    1
     5     5     4    1
     6     4     1    1
     7     1     2    1
     8     1    22    1
     9    22    36    1
    10    36    37    1
    11    37    38   ar
    12    38    39   ar
    13    39    40   ar
    14    40    41   ar
    15    41    42   ar
    16    22    23    1
    17    23    24   am
    18    24    25    2
    19    24    27    1
    20    28    27    1
    21    28    29    1
    22    29    30    1
    23    31    30    1
    24    31    32    1
    25    32    33    1
    26    33    34    1
    27    35    34    1
    28     5     6    1
    29     6     7    2
    30     6     8    2
    31     6     9    1
    32     9    10   ar
    33    10    11   ar
    34    11    12   ar
    35    12    13    1
    36    12    14   ar
    37    14    15   ar
    38    42    37   ar
    39    35    28    1
    40    15     9   ar
    41    35    31    1
    42     2     3    1
    43    23    26    1
    44    13    16    1
    45    13    17    1
