@<TRIPOS>MOLECULE
*****
 28 31 0 0 0
SMALL
GASTEIGER

@<TRIPOS>ATOM
      1 C         139.5819  138.6812  165.3061 C.ar    1  UNL1       -0.0059
      2 C         138.8484  138.5088  164.0091 C.ar    1  UNL1        0.0002
      3 C         139.5887  138.0658  162.7820 C.ar    1  UNL1        0.0373
      4 C         141.0624  137.7952  162.8520 C.ar    1  UNL1        0.1477
      5 C         141.7959  137.9676  164.1491 C.ar    1  UNL1        0.0373
      6 C         141.0556  138.4106  165.3761 C.ar    1  UNL1        0.0002
      7 C         138.8416  139.1242  166.5333 C.3     1  UNL1        0.0991
      8 C         140.4594  142.4896  169.0447 C.3     1  UNL1        0.0790
      9 C         140.5027  142.5826  167.5482 C.3     1  UNL1        0.0264
     10 C         139.9635  141.4609  166.7110 C.3     1  UNL1        0.0729
     11 N         139.3809  140.2460  167.3704 N.3     1  UNL1       -0.2689
     12 C         139.3375  140.1529  168.8668 C.3     1  UNL1        0.0729
     13 C         139.8768  141.2747  169.7040 C.3     1  UNL1        0.0264
     14 N         140.1069  144.7534  170.2698 N.am    1  UNL1       -0.3288
     15 C         140.9987  143.6113  169.8818 C.2     1  UNL1        0.2190
     16 O         142.4297  143.5911  170.3309 O.2     1  UNL1       -0.2753
     17 H         140.4609  145.4896  170.8192 H       1  UNL1        0.1449
     18 H         139.1677  144.7667  169.9750 H       1  UNL1        0.1449
     19 O         141.8027  137.3521  161.6249 O.3     1  UNL1       -0.4313
     20 C         142.3970  138.3714  160.6986 C.ar    1  UNL1        0.2628
     21 N         142.5435  138.2327  159.2123 N.ar    1  UNL1       -0.2050
     22 C         143.1862  139.4839  158.6911 C.ar    1  UNL1        0.0910
     23 C         143.5755  139.9106  157.3068 C.ar    1  UNL1        0.0197
     24 C         144.2156  141.2492  157.0868 C.ar    1  UNL1        0.0016
     25 C         144.4663  142.1611  158.2510 C.ar    1  UNL1        0.0006
     26 C         144.0770  141.7344  159.6353 C.ar    1  UNL1        0.0081
     27 C         143.4369  140.3958  159.8554 C.ar    1  UNL1        0.0515
     28 S         142.9492  139.7082  161.0961 S.2     1  UNL1       -0.0283
@<TRIPOS>BOND
     1    14    15   am
     2    15    16    2
     3    15     8    1
     4     8     9    1
     5     9    10    1
     6    10    11    1
     7    11     7    1
     8     7     1    1
     9     1     2   ar
    10     2     3   ar
    11     3     4   ar
    12     4    19    1
    13    19    20    1
    14    20    21   ar
    15    21    22   ar
    16    22    23   ar
    17    23    24   ar
    18    24    25   ar
    19    25    26   ar
    20    26    27   ar
    21    27    28   ar
    22     4     5   ar
    23     5     6   ar
    24    11    12    1
    25    12    13    1
    26    13     8    1
    27     6     1   ar
    28    28    20   ar
    29    27    22   ar
    30    14    17    1
    31    14    18    1
@<TRIPOS>MOLECULE
*****
 28 31 0 0 0
SMALL
GASTEIGER

@<TRIPOS>ATOM
      1 C         138.5180  138.9693  165.6234 C.ar    1  UNL1       -0.0059
      2 C         138.1081  140.0613  164.6803 C.ar    1  UNL1        0.0002
      3 C         138.1622  139.8324  163.1988 C.ar    1  UNL1        0.0373
      4 C         138.6261  138.5114  162.6605 C.ar    1  UNL1        0.1477
      5 C         139.0360  137.4193  163.6037 C.ar    1  UNL1        0.0373
      6 C         138.9819  137.6483  165.0851 C.ar    1  UNL1        0.0002
      7 C         138.4640  139.1982  167.1049 C.3     1  UNL1        0.0991
      8 C         141.6984  141.5806  169.1329 C.3     1  UNL1        0.0790
      9 C         140.4212  141.2792  169.8596 C.3     1  UNL1        0.0264
     10 C         139.3431  140.4851  169.1836 C.3     1  UNL1        0.0729
     11 N         139.5421  139.9923  167.7809 N.3     1  UNL1       -0.2689
     12 C         140.8192  140.2937  167.0542 C.3     1  UNL1        0.0729
     13 C         141.8974  141.0879  167.7302 C.3     1  UNL1        0.0264
     14 N         142.6171  142.7879  171.2420 N.am    1  UNL1       -0.3288
     15 C         142.7765  142.3748  169.8089 C.2     1  UNL1        0.2190
     16 O         144.0140  142.7558  169.0517 O.2     1  UNL1       -0.2753
     17 H         143.3247  143.3091  171.6857 H       1  UNL1        0.1449
     18 H         141.8048  142.5378  171.7390 H       1  UNL1        0.1449
     19 O         138.6802  138.2824  161.1791 O.3     1  UNL1       -0.4313
     20 C         138.8390  139.4458  160.2457 C.ar    1  UNL1        0.2628
     21 N         137.7728  140.0160  159.3580 N.ar    1  UNL1       -0.2050
     22 C         138.3668  141.1659  158.5997 C.ar    1  UNL1        0.0910
     23 C         137.7876  142.1031  157.5819 C.ar    1  UNL1        0.0197
     24 C         138.6419  143.1809  156.9830 C.ar    1  UNL1        0.0016
     25 C         140.0754  143.3213  157.4020 C.ar    1  UNL1        0.0006
     26 C         140.6545  142.3840  158.4199 C.ar    1  UNL1        0.0081
     27 C         139.8002  141.3063  159.0187 C.ar    1  UNL1        0.0515
     28 S         140.0920  140.2433  160.0360 S.2     1  UNL1       -0.0283
@<TRIPOS>BOND
     1    14    15   am
     2    15    16    2
     3    15     8    1
     4     8     9    1
     5     9    10    1
     6    10    11    1
     7    11     7    1
     8     7     1    1
     9     1     2   ar
    10     2     3   ar
    11     3     4   ar
    12     4    19    1
    13    19    20    1
    14    20    21   ar
    15    21    22   ar
    16    22    23   ar
    17    23    24   ar
    18    24    25   ar
    19    25    26   ar
    20    26    27   ar
    21    27    28   ar
    22     4     5   ar
    23     5     6   ar
    24    11    12    1
    25    12    13    1
    26    13     8    1
    27     6     1   ar
    28    28    20   ar
    29    27    22   ar
    30    14    17    1
    31    14    18    1
@<TRIPOS>MOLECULE
*****
 28 31 0 0 0
SMALL
GASTEIGER

@<TRIPOS>ATOM
      1 C         143.5743  139.5468  164.7075 C.ar    1  UNL1       -0.0059
      2 C         143.6078  139.0668  163.2869 C.ar    1  UNL1        0.0002
      3 C         144.0952  139.9772  162.1988 C.ar    1  UNL1        0.0373
      4 C         144.5491  141.3676  162.5316 C.ar    1  UNL1        0.1477
      5 C         144.5156  141.8476  163.9524 C.ar    1  UNL1        0.0373
      6 C         144.0282  140.9372  165.0403 C.ar    1  UNL1        0.0002
      7 C         143.0869  138.6364  165.7956 C.3     1  UNL1        0.0991
      8 C         140.2364  140.1833  168.9151 C.3     1  UNL1        0.0790
      9 C         139.7645  139.9712  167.5071 C.3     1  UNL1        0.0264
     10 C         140.7146  139.4555  166.4673 C.3     1  UNL1        0.0729
     11 N         142.1367  139.1520  166.8354 N.3     1  UNL1       -0.2689
     12 C         142.6087  139.3641  168.2433 C.3     1  UNL1        0.0729
     13 C         141.6585  139.8798  169.2832 C.3     1  UNL1        0.0264
     14 N         138.0897  139.8840  170.3476 N.am    1  UNL1       -0.3288
     15 C         139.2862  140.6989  169.9549 C.2     1  UNL1        0.2190
     16 O         139.5326  142.0295  170.6020 O.2     1  UNL1       -0.2753
     17 H         137.4661  140.2224  171.0301 H       1  UNL1        0.1449
     18 H         137.9281  139.0106  169.9229 H       1  UNL1        0.1449
     19 O         145.0365  142.2779  161.4437 O.3     1  UNL1       -0.4313
     20 C         144.0575  142.9060  160.4966 C.ar    1  UNL1        0.2628
     21 N         142.9544  143.8522  160.8679 N.ar    1  UNL1       -0.2050
     22 C         142.2248  144.2292  159.6127 C.ar    1  UNL1        0.0910
     23 C         141.0509  145.1297  159.3661 C.ar    1  UNL1        0.0197
     24 C         140.5292  145.3171  157.9723 C.ar    1  UNL1        0.0016
     25 C         141.1814  144.6038  156.8252 C.ar    1  UNL1        0.0006
     26 C         142.3553  143.7033  157.0718 C.ar    1  UNL1        0.0081
     27 C         142.8770  143.5160  158.4656 C.ar    1  UNL1        0.0515
     28 S         144.0097  142.6982  159.0118 S.2     1  UNL1       -0.0283
@<TRIPOS>BOND
     1    14    15   am
     2    15    16    2
     3    15     8    1
     4     8     9    1
     5     9    10    1
     6    10    11    1
     7    11     7    1
     8     7     1    1
     9     1     2   ar
    10     2     3   ar
    11     3     4   ar
    12     4    19    1
    13    19    20    1
    14    20    21   ar
    15    21    22   ar
    16    22    23   ar
    17    23    24   ar
    18    24    25   ar
    19    25    26   ar
    20    26    27   ar
    21    27    28   ar
    22     4     5   ar
    23     5     6   ar
    24    11    12    1
    25    12    13    1
    26    13     8    1
    27     6     1   ar
    28    28    20   ar
    29    27    22   ar
    30    14    17    1
    31    14    18    1
@<TRIPOS>MOLECULE
*****
 28 31 0 0 0
SMALL
GASTEIGER

@<TRIPOS>ATOM
      1 C         138.5331  139.0134  165.7287 C.ar    1  UNL1       -0.0059
      2 C         138.1281  140.1482  164.8352 C.ar    1  UNL1        0.0002
      3 C         138.1320  139.9684  163.3460 C.ar    1  UNL1        0.0373
      4 C         138.5408  138.6539  162.7503 C.ar    1  UNL1        0.1477
      5 C         138.9458  137.5191  163.6439 C.ar    1  UNL1        0.0373
      6 C         138.9419  137.6989  165.1330 C.ar    1  UNL1        0.0002
      7 C         138.5292  139.1932  167.2179 C.3     1  UNL1        0.0991
      8 C         141.7560  141.6247  169.1992 C.3     1  UNL1        0.0790
      9 C         141.9540  141.1108  167.8039 C.3     1  UNL1        0.0264
     10 C         140.8784  140.3003  167.1435 C.3     1  UNL1        0.0729
     11 N         139.6048  140.0037  167.8783 N.3     1  UNL1       -0.2689
     12 C         139.4068  140.5176  169.2735 C.3     1  UNL1        0.0729
     13 C         140.4824  141.3281  169.9340 C.3     1  UNL1        0.0264
     14 N         142.6508  142.9145  171.2694 N.am    1  UNL1       -0.3288
     15 C         142.8316  142.4352  169.8596 C.2     1  UNL1        0.2190
     16 O         144.0880  142.7664  169.1102 O.2     1  UNL1       -0.2753
     17 H         143.3567  143.4465  171.7028 H       1  UNL1        0.1449
     18 H         141.8261  142.6972  171.7613 H       1  UNL1        0.1449
     19 O         138.5447  138.4741  161.2612 O.3     1  UNL1       -0.4313
     20 C         139.7395  138.8950  160.4580 C.ar    1  UNL1        0.2628
     21 N         141.0251  139.4378  161.0082 N.ar    1  UNL1       -0.2050
     22 C         141.9387  139.7254  159.8538 C.ar    1  UNL1        0.0910
     23 C         143.3339  140.2725  159.7902 C.ar    1  UNL1        0.0197
     24 C         144.0082  140.4545  158.4627 C.ar    1  UNL1        0.0016
     25 C         143.2873  140.0894  157.1990 C.ar    1  UNL1        0.0006
     26 C         141.8921  139.5423  157.2627 C.ar    1  UNL1        0.0081
     27 C         141.2178  139.3603  158.5901 C.ar    1  UNL1        0.0515
     28 S         139.8587  138.8471  158.9635 S.2     1  UNL1       -0.0283
@<TRIPOS>BOND
     1    14    15   am
     2    15    16    2
     3    15     8    1
     4     8     9    1
     5     9    10    1
     6    10    11    1
     7    11     7    1
     8     7     1    1
     9     1     2   ar
    10     2     3   ar
    11     3     4   ar
    12     4    19    1
    13    19    20    1
    14    20    21   ar
    15    21    22   ar
    16    22    23   ar
    17    23    24   ar
    18    24    25   ar
    19    25    26   ar
    20    26    27   ar
    21    27    28   ar
    22     4     5   ar
    23     5     6   ar
    24    11    12    1
    25    12    13    1
    26    13     8    1
    27     6     1   ar
    28    28    20   ar
    29    27    22   ar
    30    14    17    1
    31    14    18    1
@<TRIPOS>MOLECULE
*****
 28 31 0 0 0
SMALL
GASTEIGER

@<TRIPOS>ATOM
      1 C         140.5166  144.1266  163.8891 C.ar    1  UNL1       -0.0059
      2 C         139.7928  145.2313  163.1781 C.ar    1  UNL1        0.0002
      3 C         140.1897  145.6115  161.7824 C.ar    1  UNL1        0.0373
      4 C         141.3105  144.8869  161.0977 C.ar    1  UNL1        0.1477
      5 C         142.0344  143.7821  161.8088 C.ar    1  UNL1        0.0373
      6 C         141.6374  143.4020  163.2045 C.ar    1  UNL1        0.0002
      7 C         140.1197  143.7465  165.2849 C.3     1  UNL1        0.0991
      8 C         138.5905  139.6014  166.1391 C.3     1  UNL1        0.0790
      9 C         138.1049  140.3457  164.9307 C.3     1  UNL1        0.0264
     10 C         138.6146  141.7274  164.6460 C.3     1  UNL1        0.0729
     11 N         139.6100  142.3648  165.5696 N.3     1  UNL1       -0.2689
     12 C         140.0956  141.6205  166.7780 C.3     1  UNL1        0.0729
     13 C         139.5858  140.2388  167.0628 C.3     1  UNL1        0.0264
     14 N         137.1690  137.9824  167.5911 N.am    1  UNL1       -0.3288
     15 C         138.0808  138.2197  166.4239 C.2     1  UNL1        0.2190
     16 O         138.4829  137.0754  165.5414 O.2     1  UNL1       -0.2753
     17 H         136.8345  137.0755  167.7780 H       1  UNL1        0.1449
     18 H         136.9051  138.7335  168.1703 H       1  UNL1        0.1449
     19 O         141.7075  145.2670  159.7021 O.3     1  UNL1       -0.4313
     20 C         140.7400  145.0828  158.5707 C.ar    1  UNL1        0.2628
     21 N         140.3636  146.1202  157.5548 N.ar    1  UNL1       -0.2050
     22 C         139.3701  145.5075  156.6127 C.ar    1  UNL1        0.0910
     23 C         138.6511  146.0560  155.4161 C.ar    1  UNL1        0.0197
     24 C         137.6944  145.1884  154.6531 C.ar    1  UNL1        0.0016
     25 C         137.4568  143.7723  155.0868 C.ar    1  UNL1        0.0006
     26 C         138.1758  143.2238  156.2835 C.ar    1  UNL1        0.0081
     27 C         139.1324  144.0913  157.0465 C.ar    1  UNL1        0.0515
     28 S         139.9791  143.8289  158.2565 S.2     1  UNL1       -0.0283
@<TRIPOS>BOND
     1    14    15   am
     2    15    16    2
     3    15     8    1
     4     8     9    1
     5     9    10    1
     6    10    11    1
     7    11     7    1
     8     7     1    1
     9     1     2   ar
    10     2     3   ar
    11     3     4   ar
    12     4    19    1
    13    19    20    1
    14    20    21   ar
    15    21    22   ar
    16    22    23   ar
    17    23    24   ar
    18    24    25   ar
    19    25    26   ar
    20    26    27   ar
    21    27    28   ar
    22     4     5   ar
    23     5     6   ar
    24    11    12    1
    25    12    13    1
    26    13     8    1
    27     6     1   ar
    28    28    20   ar
    29    27    22   ar
    30    14    17    1
    31    14    18    1
@<TRIPOS>MOLECULE
*****
 28 31 0 0 0
SMALL
GASTEIGER

@<TRIPOS>ATOM
      1 C         143.2579  138.9624  165.0426 C.ar    1  UNL1       -0.0059
      2 C         142.0120  138.9019  164.2096 C.ar    1  UNL1        0.0002
      3 C         142.0403  139.3647  162.7830 C.ar    1  UNL1        0.0373
      4 C         143.3147  139.8880  162.1895 C.ar    1  UNL1        0.1477
      5 C         144.5606  139.9485  163.0226 C.ar    1  UNL1        0.0373
      6 C         144.5322  139.4857  164.4491 C.ar    1  UNL1        0.0002
      7 C         143.2296  138.4995  166.4692 C.3     1  UNL1        0.0991
      8 C         142.5266  141.4625  169.7823 C.3     1  UNL1        0.0790
      9 C         142.6222  139.9981  170.0934 C.3     1  UNL1        0.0264
     10 C         142.8565  139.0105  168.9890 C.3     1  UNL1        0.0729
     11 N         142.9953  139.4872  167.5736 N.3     1  UNL1       -0.2689
     12 C         142.8997  140.9514  167.2624 C.3     1  UNL1        0.0729
     13 C         142.6654  141.9391  168.3668 C.3     1  UNL1        0.0264
     14 N         143.1922  143.6415  171.0308 N.am    1  UNL1       -0.3288
     15 C         142.2923  142.4501  170.8867 C.2     1  UNL1        0.2190
     16 O         141.1582  142.2463  171.8469 O.2     1  UNL1       -0.2753
     17 H         143.0384  144.2897  171.7557 H       1  UNL1        0.1449
     18 H         143.9366  143.7753  170.4006 H       1  UNL1        0.1449
     19 O         143.3431  140.3508  160.7630 O.3     1  UNL1       -0.4313
     20 C         142.7090  139.5153  159.6907 C.ar    1  UNL1        0.2628
     21 N         143.3654  138.3916  158.9448 N.ar    1  UNL1       -0.2050
     22 C         142.3693  137.8386  157.9691 C.ar    1  UNL1        0.0910
     23 C         142.4563  136.7241  156.9690 C.ar    1  UNL1        0.0197
     24 C         141.2712  136.3915  156.1118 C.ar    1  UNL1        0.0016
     25 C         139.9991  137.1734  156.2546 C.ar    1  UNL1        0.0006
     26 C         139.9122  138.2880  157.2547 C.ar    1  UNL1        0.0081
     27 C         141.0973  138.6205  158.1119 C.ar    1  UNL1        0.0515
     28 S         141.3072  139.6568  159.1759 S.2     1  UNL1       -0.0283
@<TRIPOS>BOND
     1    14    15   am
     2    15    16    2
     3    15     8    1
     4     8     9    1
     5     9    10    1
     6    10    11    1
     7    11     7    1
     8     7     1    1
     9     1     2   ar
    10     2     3   ar
    11     3     4   ar
    12     4    19    1
    13    19    20    1
    14    20    21   ar
    15    21    22   ar
    16    22    23   ar
    17    23    24   ar
    18    24    25   ar
    19    25    26   ar
    20    26    27   ar
    21    27    28   ar
    22     4     5   ar
    23     5     6   ar
    24    11    12    1
    25    12    13    1
    26    13     8    1
    27     6     1   ar
    28    28    20   ar
    29    27    22   ar
    30    14    17    1
    31    14    18    1
@<TRIPOS>MOLECULE
*****
 28 31 0 0 0
SMALL
GASTEIGER

@<TRIPOS>ATOM
      1 C         139.1271  138.4906  162.3360 C.ar    1  UNL1       -0.0059
      2 C         138.3555  139.6922  162.7949 C.ar    1  UNL1        0.0002
      3 C         138.0802  139.8938  164.2557 C.ar    1  UNL1        0.0373
      4 C         138.5765  138.8937  165.2574 C.ar    1  UNL1        0.1477
      5 C         139.3482  137.6921  164.7984 C.ar    1  UNL1        0.0373
      6 C         139.6234  137.4905  163.3378 C.ar    1  UNL1        0.0002
      7 C         139.4024  138.2890  160.8753 C.3     1  UNL1        0.0991
      8 C         142.9599  140.2718  158.9615 C.3     1  UNL1        0.0790
      9 C         141.6794  141.0337  159.1342 C.3     1  UNL1        0.0264
     10 C         140.4936  140.3728  159.7721 C.3     1  UNL1        0.0729
     11 N         140.5882  138.9499  160.2374 N.3     1  UNL1       -0.2689
     12 C         141.8687  138.1880  160.0648 C.3     1  UNL1        0.0729
     13 C         143.0546  138.8489  159.4268 C.3     1  UNL1        0.0264
     14 N         144.9944  140.1714  157.3489 N.am    1  UNL1       -0.3288
     15 C         144.1457  140.9327  158.3236 C.2     1  UNL1        0.2190
     16 O         144.4828  142.3550  158.6604 O.2     1  UNL1       -0.2753
     17 H         145.7727  140.6052  156.9302 H       1  UNL1        0.1449
     18 H         144.7732  139.2379  157.1279 H       1  UNL1        0.1449
     19 O         138.3012  139.0953  166.7180 O.3     1  UNL1       -0.4313
     20 C         139.2746  139.8588  167.5663 C.ar    1  UNL1        0.2628
     21 N         139.2597  139.9464  169.0637 N.ar    1  UNL1       -0.2050
     22 C         140.4097  140.8105  169.4890 C.ar    1  UNL1        0.0910
     23 C         140.8898  141.2485  170.8409 C.ar    1  UNL1        0.0197
     24 C         142.0956  142.1328  170.9583 C.ar    1  UNL1        0.0016
     25 C         142.8213  142.5793  169.7238 C.ar    1  UNL1        0.0006
     26 C         142.3412  142.1413  168.3719 C.ar    1  UNL1        0.0081
     27 C         141.1354  141.2569  168.2545 C.ar    1  UNL1        0.0515
     28 S         140.4339  140.6687  167.0662 S.2     1  UNL1       -0.0283
@<TRIPOS>BOND
     1    14    15   am
     2    15    16    2
     3    15     8    1
     4     8     9    1
     5     9    10    1
     6    10    11    1
     7    11     7    1
     8     7     1    1
     9     1     2   ar
    10     2     3   ar
    11     3     4   ar
    12     4    19    1
    13    19    20    1
    14    20    21   ar
    15    21    22   ar
    16    22    23   ar
    17    23    24   ar
    18    24    25   ar
    19    25    26   ar
    20    26    27   ar
    21    27    28   ar
    22     4     5   ar
    23     5     6   ar
    24    11    12    1
    25    12    13    1
    26    13     8    1
    27     6     1   ar
    28    28    20   ar
    29    27    22   ar
    30    14    17    1
    31    14    18    1
@<TRIPOS>MOLECULE
*****
 28 31 0 0 0
SMALL
GASTEIGER

@<TRIPOS>ATOM
      1 C         140.3030  145.6499  155.7781 C.ar    1  UNL1       -0.0059
      2 C         141.4373  146.1193  156.6400 C.ar    1  UNL1        0.0002
      3 C         141.8229  145.3401  157.8624 C.ar    1  UNL1        0.0373
      4 C         141.0740  144.0914  158.2229 C.ar    1  UNL1        0.1477
      5 C         139.9396  143.6220  157.3610 C.ar    1  UNL1        0.0373
      6 C         139.5541  144.4012  156.1386 C.ar    1  UNL1        0.0002
      7 C         139.9175  146.4291  154.5557 C.3     1  UNL1        0.0991
      8 C         138.9412  150.8088  154.8943 C.3     1  UNL1        0.0790
      9 C         138.4340  149.8453  155.9261 C.3     1  UNL1        0.0264
     10 C         138.7594  148.3854  155.8132 C.3     1  UNL1        0.0729
     11 N         139.5921  147.8889  154.6685 N.3     1  UNL1       -0.2689
     12 C         140.0992  148.8523  153.6368 C.3     1  UNL1        0.0729
     13 C         139.7738  150.3123  153.7496 C.3     1  UNL1        0.0264
     14 N         137.9720  152.9847  153.8570 N.am    1  UNL1       -0.3288
     15 C         138.6158  152.2687  155.0071 C.2     1  UNL1        0.2190
     16 O         138.9341  153.0125  156.2702 O.2     1  UNL1       -0.2753
     17 H         137.7584  153.9429  153.9311 H       1  UNL1        0.1449
     18 H         137.7630  152.4965  153.0280 H       1  UNL1        0.1449
     19 O         141.4595  143.3122  159.4453 O.3     1  UNL1       -0.4313
     20 C         140.7546  143.5601  160.7459 C.ar    1  UNL1        0.2628
     21 N         139.2750  143.7246  160.9295 N.ar    1  UNL1       -0.2050
     22 C         139.0114  143.9532  162.3884 C.ar    1  UNL1        0.0910
     23 C         137.7426  144.1795  163.1557 C.ar    1  UNL1        0.0197
     24 C         137.7905  144.3825  164.6411 C.ar    1  UNL1        0.0016
     25 C         139.1073  144.3592  165.3592 C.ar    1  UNL1        0.0006
     26 C         140.3761  144.1330  164.5919 C.ar    1  UNL1        0.0081
     27 C         140.3282  143.9299  163.1065 C.ar    1  UNL1        0.0515
     28 S         141.4055  143.6870  162.0913 S.2     1  UNL1       -0.0283
@<TRIPOS>BOND
     1    14    15   am
     2    15    16    2
     3    15     8    1
     4     8     9    1
     5     9    10    1
     6    10    11    1
     7    11     7    1
     8     7     1    1
     9     1     2   ar
    10     2     3   ar
    11     3     4   ar
    12     4    19    1
    13    19    20    1
    14    20    21   ar
    15    21    22   ar
    16    22    23   ar
    17    23    24   ar
    18    24    25   ar
    19    25    26   ar
    20    26    27   ar
    21    27    28   ar
    22     4     5   ar
    23     5     6   ar
    24    11    12    1
    25    12    13    1
    26    13     8    1
    27     6     1   ar
    28    28    20   ar
    29    27    22   ar
    30    14    17    1
    31    14    18    1
@<TRIPOS>MOLECULE
*****
 28 31 0 0 0
SMALL
GASTEIGER

@<TRIPOS>ATOM
      1 C         144.6251  141.5687  161.8736 C.ar    1  UNL1       -0.0059
      2 C         145.3365  141.7115  163.1863 C.ar    1  UNL1        0.0002
      3 C         145.0636  140.7408  164.2969 C.ar    1  UNL1        0.0373
      4 C         144.0791  139.6272  164.0946 C.ar    1  UNL1        0.1477
      5 C         143.3677  139.4845  162.7817 C.ar    1  UNL1        0.0373
      6 C         143.6407  140.4552  161.6712 C.ar    1  UNL1        0.0002
      7 C         144.8981  142.5394  160.7630 C.3     1  UNL1        0.0991
      8 C         141.4789  144.3390  158.4564 C.3     1  UNL1        0.0790
      9 C         142.5984  143.6564  157.7277 C.3     1  UNL1        0.0264
     10 C         143.7381  143.0566  158.4966 C.3     1  UNL1        0.0729
     11 N         143.7584  143.1393  159.9941 N.3     1  UNL1       -0.2689
     12 C         142.6390  143.8218  160.7229 C.3     1  UNL1        0.0729
     13 C         141.4992  144.4217  159.9540 C.3     1  UNL1        0.0264
     14 N         140.2415  146.4274  157.5304 N.am    1  UNL1       -0.3288
     15 C         140.3392  144.9388  157.6875 C.2     1  UNL1        0.2190
     16 O         139.2971  144.0501  157.0758 O.2     1  UNL1       -0.2753
     17 H         139.4935  146.8211  157.0257 H       1  UNL1        0.1449
     18 H         140.9255  147.0107  157.9319 H       1  UNL1        0.1449
     19 O         143.8061  138.6565  165.2050 O.3     1  UNL1       -0.4313
     20 C         142.8948  139.0431  166.3320 C.ar    1  UNL1        0.2628
     21 N         143.2040  138.9273  167.7952 N.ar    1  UNL1       -0.2050
     22 C         142.0146  139.4260  168.5612 C.ar    1  UNL1        0.0910
     23 C         141.7476  139.5487  170.0321 C.ar    1  UNL1        0.0197
     24 C         140.4363  140.0956  170.5132 C.ar    1  UNL1        0.0016
     25 C         139.3921  140.5197  169.5234 C.ar    1  UNL1        0.0006
     26 C         139.6591  140.3969  168.0525 C.ar    1  UNL1        0.0081
     27 C         140.9704  139.8501  167.5714 C.ar    1  UNL1        0.0515
     28 S         141.5144  139.6135  166.1937 S.2     1  UNL1       -0.0283
@<TRIPOS>BOND
     1    14    15   am
     2    15    16    2
     3    15     8    1
     4     8     9    1
     5     9    10    1
     6    10    11    1
     7    11     7    1
     8     7     1    1
     9     1     2   ar
    10     2     3   ar
    11     3     4   ar
    12     4    19    1
    13    19    20    1
    14    20    21   ar
    15    21    22   ar
    16    22    23   ar
    17    23    24   ar
    18    24    25   ar
    19    25    26   ar
    20    26    27   ar
    21    27    28   ar
    22     4     5   ar
    23     5     6   ar
    24    11    12    1
    25    12    13    1
    26    13     8    1
    27     6     1   ar
    28    28    20   ar
    29    27    22   ar
    30    14    17    1
    31    14    18    1
