@<TRIPOS>MOLECULE
*****
 40 44 0 0 0
SMALL
GASTEIGER

@<TRIPOS>ATOM
      1 C         142.6514  141.7168  160.5152 C.ar    1  UNL1        0.0539
      2 C         141.3381  142.3659  160.1929 C.ar    1  UNL1        0.0090
      3 C         140.4988  141.8414  159.0657 C.ar    1  UNL1        0.0534
      4 C         140.9729  140.6679  158.2607 C.ar    1  UNL1        0.0092
      5 C         142.2862  140.0188  158.5830 C.ar    1  UNL1        0.0564
      6 C         143.1255  140.5432  159.7102 C.ar    1  UNL1        0.0093
      7 C         142.5078  141.1224  165.8888 C.3     1  UNL1        0.0279
      8 C         141.6686  140.5980  164.7616 C.3     1  UNL1        0.0260
      9 C         141.9962  140.9709  163.3460 C.3     1  UNL1        0.0940
     10 N         143.1630  141.8683  163.0578 N.am    1  UNL1       -0.2761
     11 C         143.4906  142.2413  161.6423 C.2     1  UNL1        0.2490
     12 O         144.6575  143.1387  161.3541 O.2     1  UNL1       -0.2699
     13 C         144.0023  142.3928  164.1851 C.3     1  UNL1        0.0940
     14 C         143.6747  142.0198  165.6005 C.3     1  UNL1        0.0260
     15 C         140.9984  141.2830  169.5556 C.ar    1  UNL1       -0.0068
     16 C         141.5250  140.0037  170.1352 C.ar    1  UNL1       -0.0006
     17 C         142.3792  139.0972  169.2993 C.ar    1  UNL1        0.0290
     18 C         142.7068  139.4701  167.8839 C.ar    1  UNL1        0.1361
     19 F         143.5610  138.5637  167.0480 F       1  UNL1       -0.2045
     20 C         142.1802  140.7494  167.3043 C.ar    1  UNL1        0.0048
     21 C         141.3260  141.6559  168.1402 C.ar    1  UNL1       -0.0050
     22 N         140.3644  142.2720  171.8729 N.3     1  UNL1       -0.3175
     23 C         140.1442  142.1895  170.3915 C.3     1  UNL1        0.0922
     24 H         139.7005  142.9312  172.2792 H       1  UNL1        0.1192
     25 H         141.3158  142.5900  172.0581 H       1  UNL1        0.1192
     26 C         139.1855  142.4905  158.7434 C.2     1  UNL1        0.2428
     27 N         138.6835  142.5062  157.3299 N.am    1  UNL1       -0.3253
     28 O         138.3743  143.1240  159.8345 O.2     1  UNL1       -0.2704
     29 H         139.2159  142.0904  156.6138 H       1  UNL1        0.1453
     30 H         137.8215  142.9322  157.1184 H       1  UNL1        0.1453
     31 C         142.7603  138.8452  157.7780 C.ar    1  UNL1        0.2600
     32 N         142.2530  137.4379  157.8880 N.ar    1  UNL1       -0.1865
     33 C         143.0042  136.5958  156.8997 C.ar    1  UNL1        0.2096
     34 N         143.9758  137.4827  156.1789 N.ar    1  UNL1       -0.0551
     35 O         143.8251  138.8729  156.7218 O.2     1  UNL1       -0.3324
     36 C         142.8166  135.1250  156.6721 C.ar    1  UNL1        0.0685
     37 C         141.8906  134.4987  155.6720 C.ar    1  UNL1        0.0102
     38 C         142.0239  133.0090  155.7865 C.ar    1  UNL1        0.0076
     39 C         143.0323  132.7147  156.8573 C.ar    1  UNL1        0.0355
     40 S         143.5222  134.0226  157.4046 S.2     1  UNL1       -0.0832
@<TRIPOS>BOND
     1    22    23    1
     2    23    15    1
     3    15    16   ar
     4    16    17   ar
     5    17    18   ar
     6    18    19    1
     7    18    20   ar
     8    20     7    1
     9     7     8    1
    10     8     9    1
    11     9    10    1
    12    10    11   am
    13    11    12    2
    14    11     1    1
    15     1     2   ar
    16     2     3   ar
    17     3    26    1
    18    26    27   am
    19    26    28    2
    20     3     4   ar
    21     4     5   ar
    22     5    31    1
    23    31    32   ar
    24    32    33   ar
    25    33    36    1
    26    36    37   ar
    27    37    38   ar
    28    38    39   ar
    29    39    40   ar
    30    33    34   ar
    31    34    35   ar
    32     5     6   ar
    33    10    13    1
    34    13    14    1
    35    20    21   ar
    36    21    15   ar
    37    14     7    1
    38     6     1   ar
    39    35    31   ar
    40    40    36   ar
    41    22    24    1
    42    22    25    1
    43    27    29    1
    44    27    30    1
@<TRIPOS>MOLECULE
*****
 40 44 0 0 0
SMALL
GASTEIGER

@<TRIPOS>ATOM
      1 C         140.6226  140.3566  160.0122 C.ar    1  UNL1        0.0539
      2 C         141.6645  141.4355  159.9976 C.ar    1  UNL1        0.0090
      3 C         142.9136  141.2610  159.1855 C.ar    1  UNL1        0.0534
      4 C         143.1206  140.0076  158.3880 C.ar    1  UNL1        0.0092
      5 C         142.0787  138.9287  158.4025 C.ar    1  UNL1        0.0564
      6 C         140.8297  139.1031  159.2146 C.ar    1  UNL1        0.0093
      7 C         139.6320  140.8744  165.3037 C.3     1  UNL1        0.0279
      8 C         140.8810  140.7000  164.4916 C.3     1  UNL1        0.0260
      9 C         140.7949  140.5855  162.9984 C.3     1  UNL1        0.0940
     10 N         139.4597  140.6455  162.3174 N.am    1  UNL1       -0.2761
     11 C         139.3736  140.5310  160.8243 C.2     1  UNL1        0.2490
     12 O         138.0384  140.5910  160.1432 O.2     1  UNL1       -0.2699
     13 C         138.2107  140.8199  163.1295 C.3     1  UNL1        0.0940
     14 C         138.2968  140.9344  164.6227 C.3     1  UNL1        0.0260
     15 C         140.4314  142.3145  168.9144 C.ar    1  UNL1       -0.0068
     16 C         139.8903  141.2179  169.7831 C.ar    1  UNL1       -0.0006
     17 C         139.2631  140.0068  169.1587 C.ar    1  UNL1        0.0290
     18 C         139.1770  139.8923  167.6656 C.ar    1  UNL1        0.1361
     19 F         138.5498  138.6812  167.0412 F       1  UNL1       -0.2045
     20 C         139.7181  140.9889  166.7969 C.ar    1  UNL1        0.0048
     21 C         140.3453  142.2000  167.4213 C.ar    1  UNL1       -0.0050
     22 N         140.1981  144.5518  170.2143 N.3     1  UNL1       -0.3175
     23 C         141.0586  143.5256  169.5388 C.3     1  UNL1        0.0922
     24 H         140.7859  145.3011  170.5796 H       1  UNL1        0.1192
     25 H         139.6874  144.1154  170.9819 H       1  UNL1        0.1192
     26 C         143.9555  142.3400  159.1709 C.2     1  UNL1        0.2428
     27 N         144.1267  143.2009  157.9546 N.am    1  UNL1       -0.3253
     28 O         144.8263  142.5580  160.3727 O.2     1  UNL1       -0.2704
     29 H         143.5552  143.0578  157.1658 H       1  UNL1        0.1453
     30 H         144.8106  143.9091  157.9450 H       1  UNL1        0.1453
     31 C         142.2857  137.6753  157.6050 C.ar    1  UNL1        0.2600
     32 N         143.0899  136.4825  158.0300 N.ar    1  UNL1       -0.1865
     33 C         143.0261  135.4646  156.9300 C.ar    1  UNL1        0.2096
     34 N         142.1825  136.0283  155.8252 N.ar    1  UNL1       -0.0551
     35 O         141.7249  137.3945  156.2423 O.2     1  UNL1       -0.3324
     36 C         143.6895  134.1193  156.9342 C.ar    1  UNL1        0.0685
     37 C         144.3917  133.4861  158.0986 C.ar    1  UNL1        0.0102
     38 C         144.9033  132.1464  157.6587 C.ar    1  UNL1        0.0076
     39 C         144.5171  131.9516  156.2224 C.ar    1  UNL1        0.0355
     40 S         143.7669  133.1709  155.7746 S.2     1  UNL1       -0.0832
@<TRIPOS>BOND
     1    22    23    1
     2    23    15    1
     3    15    16   ar
     4    16    17   ar
     5    17    18   ar
     6    18    19    1
     7    18    20   ar
     8    20     7    1
     9     7     8    1
    10     8     9    1
    11     9    10    1
    12    10    11   am
    13    11    12    2
    14    11     1    1
    15     1     2   ar
    16     2     3   ar
    17     3    26    1
    18    26    27   am
    19    26    28    2
    20     3     4   ar
    21     4     5   ar
    22     5    31    1
    23    31    32   ar
    24    32    33   ar
    25    33    36    1
    26    36    37   ar
    27    37    38   ar
    28    38    39   ar
    29    39    40   ar
    30    33    34   ar
    31    34    35   ar
    32     5     6   ar
    33    10    13    1
    34    13    14    1
    35    20    21   ar
    36    21    15   ar
    37    14     7    1
    38     6     1   ar
    39    35    31   ar
    40    40    36   ar
    41    22    24    1
    42    22    25    1
    43    27    29    1
    44    27    30    1
@<TRIPOS>MOLECULE
*****
 40 44 0 0 0
SMALL
GASTEIGER

@<TRIPOS>ATOM
      1 C         142.8113  141.5196  160.1119 C.ar    1  UNL1        0.0539
      2 C         141.5199  142.1857  159.7397 C.ar    1  UNL1        0.0090
      3 C         140.6831  141.6298  158.6258 C.ar    1  UNL1        0.0534
      4 C         141.1377  140.4079  157.8841 C.ar    1  UNL1        0.0092
      5 C         142.4291  139.7418  158.2563 C.ar    1  UNL1        0.0564
      6 C         143.2659  140.2976  159.3702 C.ar    1  UNL1        0.0093
      7 C         142.3145  141.5956  165.4968 C.3     1  UNL1        0.0279
      8 C         141.4777  141.0398  164.3829 C.3     1  UNL1        0.0260
      9 C         141.9222  141.1997  162.9592 C.3     1  UNL1        0.0940
     10 N         143.2036  141.9154  162.6495 N.am    1  UNL1       -0.2761
     11 C         143.6481  142.0754  161.2258 C.2     1  UNL1        0.2490
     12 O         144.9294  142.7911  160.9161 O.2     1  UNL1       -0.2699
     13 C         144.0404  142.4713  163.7635 C.3     1  UNL1        0.0940
     14 C         143.5958  142.3113  165.1871 C.3     1  UNL1        0.0260
     15 C         142.0380  140.2118  169.2061 C.ar    1  UNL1       -0.0068
     16 C         140.9811  141.1158  169.7678 C.ar    1  UNL1       -0.0006
     17 C         140.3686  142.1797  168.9059 C.ar    1  UNL1        0.0290
     18 C         140.8130  142.3396  167.4823 C.ar    1  UNL1        0.1361
     19 F         140.2005  143.4036  166.6204 F       1  UNL1       -0.2045
     20 C         141.8700  141.4357  166.9205 C.ar    1  UNL1        0.0048
     21 C         142.4825  140.3717  167.7824 C.ar    1  UNL1       -0.0050
     22 N         143.5927  139.5271  171.1718 N.3     1  UNL1       -0.3175
     23 C         142.6505  139.1479  170.0680 C.3     1  UNL1        0.0922
     24 H         143.9109  138.6850  171.6515 H       1  UNL1        0.1192
     25 H         143.1123  140.1352  171.8350 H       1  UNL1        0.1192
     26 C         139.3917  142.2960  158.2535 C.2     1  UNL1        0.2428
     27 N         138.6267  143.0760  159.2814 N.am    1  UNL1       -0.3253
     28 O         138.8653  142.1820  156.8536 O.2     1  UNL1       -0.2704
     29 H         138.9722  143.1508  160.2002 H       1  UNL1        0.1453
     30 H         137.7791  143.5132  159.0371 H       1  UNL1        0.1453
     31 C         142.8838  138.5198  157.5146 C.ar    1  UNL1        0.2600
     32 N         142.3101  137.1407  157.6520 N.ar    1  UNL1       -0.1865
     33 C         143.0637  136.2309  156.7276 C.ar    1  UNL1        0.2096
     34 N         144.1031  137.0479  156.0188 N.ar    1  UNL1       -0.0551
     35 O         143.9919  138.4625  156.5051 O.2     1  UNL1       -0.3324
     36 C         142.8206  134.7622  156.5441 C.ar    1  UNL1        0.0685
     37 C         141.8623  134.1419  155.5711 C.ar    1  UNL1        0.0102
     38 C         141.9426  132.6522  155.7271 C.ar    1  UNL1        0.0076
     39 C         142.9505  132.3518  156.7966 C.ar    1  UNL1        0.0355
     40 S         143.4932  133.6559  157.3015 S.2     1  UNL1       -0.0832
@<TRIPOS>BOND
     1    22    23    1
     2    23    15    1
     3    15    16   ar
     4    16    17   ar
     5    17    18   ar
     6    18    19    1
     7    18    20   ar
     8    20     7    1
     9     7     8    1
    10     8     9    1
    11     9    10    1
    12    10    11   am
    13    11    12    2
    14    11     1    1
    15     1     2   ar
    16     2     3   ar
    17     3    26    1
    18    26    27   am
    19    26    28    2
    20     3     4   ar
    21     4     5   ar
    22     5    31    1
    23    31    32   ar
    24    32    33   ar
    25    33    36    1
    26    36    37   ar
    27    37    38   ar
    28    38    39   ar
    29    39    40   ar
    30    33    34   ar
    31    34    35   ar
    32     5     6   ar
    33    10    13    1
    34    13    14    1
    35    20    21   ar
    36    21    15   ar
    37    14     7    1
    38     6     1   ar
    39    35    31   ar
    40    40    36   ar
    41    22    24    1
    42    22    25    1
    43    27    29    1
    44    27    30    1
@<TRIPOS>MOLECULE
*****
 40 44 0 0 0
SMALL
GASTEIGER

@<TRIPOS>ATOM
      1 C         140.8613  140.1349  160.8040 C.ar    1  UNL1        0.0539
      2 C         141.3588  141.5474  160.7179 C.ar    1  UNL1        0.0090
      3 C         142.3670  141.9251  159.6734 C.ar    1  UNL1        0.0534
      4 C         142.8778  140.8903  158.7151 C.ar    1  UNL1        0.0092
      5 C         142.3803  139.4778  158.8012 C.ar    1  UNL1        0.0564
      6 C         141.3721  139.1001  159.8456 C.ar    1  UNL1        0.0093
      7 C         140.8037  140.3395  166.2081 C.3     1  UNL1        0.0279
      8 C         141.8120  140.7172  165.1637 C.3     1  UNL1        0.0260
      9 C         141.4951  140.5231  163.7104 C.3     1  UNL1        0.0940
     10 N         140.1700  139.9514  163.3016 N.am    1  UNL1       -0.2761
     11 C         139.8531  139.7573  161.8484 C.2     1  UNL1        0.2490
     12 O         138.5280  139.1855  161.4396 O.2     1  UNL1       -0.2699
     13 C         139.1617  139.5736  164.3461 C.3     1  UNL1        0.0940
     14 C         139.4786  139.7677  165.7993 C.3     1  UNL1        0.0260
     15 C         140.6821  141.7450  169.9175 C.ar    1  UNL1       -0.0068
     16 C         141.7543  140.9219  170.5678 C.ar    1  UNL1       -0.0006
     17 C         142.5096  139.9046  169.7649 C.ar    1  UNL1        0.0290
     18 C         142.1927  139.7105  168.3117 C.ar    1  UNL1        0.1361
     19 F         142.9481  138.6932  167.5088 F       1  UNL1       -0.2045
     20 C         141.1206  140.5336  167.6614 C.ar    1  UNL1        0.0048
     21 C         140.3653  141.5509  168.4643 C.ar    1  UNL1       -0.0050
     22 N         139.9893  144.2126  170.3429 N.3     1  UNL1       -0.3175
     23 C         139.9268  142.7623  170.7205 C.3     1  UNL1        0.0922
     24 H         139.4212  144.7575  170.9915 H       1  UNL1        0.1192
     25 H         139.6327  144.3328  169.3949 H       1  UNL1        0.1192
     26 C         142.8645  143.3376  159.5873 C.2     1  UNL1        0.2428
     27 N         143.2891  143.9039  158.2647 N.am    1  UNL1       -0.3253
     28 O         142.9374  144.1837  160.8236 O.2     1  UNL1       -0.2704
     29 H         143.2413  143.3485  157.4533 H       1  UNL1        0.1453
     30 H         143.6156  144.8309  158.2082 H       1  UNL1        0.1453
     31 C         142.8910  138.4431  157.8430 C.ar    1  UNL1        0.2600
     32 N         142.5976  136.9729  157.8940 N.ar    1  UNL1       -0.1865
     33 C         143.3101  136.3179  156.7479 C.ar    1  UNL1        0.2096
     34 N         144.0438  137.3834  155.9885 N.ar    1  UNL1       -0.0551
     35 O         143.7848  138.6967  156.6653 O.2     1  UNL1       -0.3324
     36 C         143.2921  134.8546  156.4190 C.ar    1  UNL1        0.0685
     37 C         142.8310  134.2469  155.1274 C.ar    1  UNL1        0.0102
     38 C         142.9859  132.7587  155.2341 C.ar    1  UNL1        0.0076
     39 C         143.5427  132.4467  156.5915 C.ar    1  UNL1        0.0355
     40 S         143.7319  133.7421  157.3238 S.2     1  UNL1       -0.0832
@<TRIPOS>BOND
     1    22    23    1
     2    23    15    1
     3    15    16   ar
     4    16    17   ar
     5    17    18   ar
     6    18    19    1
     7    18    20   ar
     8    20     7    1
     9     7     8    1
    10     8     9    1
    11     9    10    1
    12    10    11   am
    13    11    12    2
    14    11     1    1
    15     1     2   ar
    16     2     3   ar
    17     3    26    1
    18    26    27   am
    19    26    28    2
    20     3     4   ar
    21     4     5   ar
    22     5    31    1
    23    31    32   ar
    24    32    33   ar
    25    33    36    1
    26    36    37   ar
    27    37    38   ar
    28    38    39   ar
    29    39    40   ar
    30    33    34   ar
    31    34    35   ar
    32     5     6   ar
    33    10    13    1
    34    13    14    1
    35    20    21   ar
    36    21    15   ar
    37    14     7    1
    38     6     1   ar
    39    35    31   ar
    40    40    36   ar
    41    22    24    1
    42    22    25    1
    43    27    29    1
    44    27    30    1
@<TRIPOS>MOLECULE
*****
 40 44 0 0 0
SMALL
GASTEIGER

@<TRIPOS>ATOM
      1 C         139.8660  141.0811  160.8627 C.ar    1  UNL1        0.0539
      2 C         140.0922  142.5182  160.4970 C.ar    1  UNL1        0.0090
      3 C         140.9964  142.8674  159.3522 C.ar    1  UNL1        0.0534
      4 C         141.6744  141.7796  158.5732 C.ar    1  UNL1        0.0092
      5 C         141.4483  140.3425  158.9389 C.ar    1  UNL1        0.0564
      6 C         140.5441  139.9933  160.0836 C.ar    1  UNL1        0.0093
      7 C         140.4087  141.2034  166.2423 C.3     1  UNL1        0.0279
      8 C         141.3129  141.5527  165.0976 C.3     1  UNL1        0.0260
      9 C         140.8306  141.3955  163.6859 C.3     1  UNL1        0.0940
     10 N         139.4441  140.8891  163.4190 N.am    1  UNL1       -0.2761
     11 C         138.9618  140.7319  162.0075 C.2     1  UNL1        0.2490
     12 O         137.5754  140.2255  161.7406 O.2     1  UNL1       -0.2699
     13 C         138.5399  140.5398  164.5639 C.3     1  UNL1        0.0940
     14 C         139.0222  140.6970  165.9755 C.3     1  UNL1        0.0260
     15 C         142.0981  140.3911  169.7403 C.ar    1  UNL1       -0.0068
     16 C         141.8555  141.6748  170.4772 C.ar    1  UNL1       -0.0006
     17 C         141.1307  142.8015  169.8025 C.ar    1  UNL1        0.0290
     18 C         140.6484  142.6444  168.3909 C.ar    1  UNL1        0.1361
     19 F         139.9235  143.7710  167.7162 F       1  UNL1       -0.2045
     20 C         140.8910  141.3606  167.6540 C.ar    1  UNL1        0.0048
     21 C         141.6158  140.2340  168.3287 C.ar    1  UNL1       -0.0050
     22 N         143.9089  139.5587  171.4071 N.3     1  UNL1       -0.3175
     23 C         142.8230  139.2644  170.4151 C.3     1  UNL1        0.0922
     24 H         144.2897  138.6824  171.7642 H       1  UNL1        0.1192
     25 H         143.5251  140.1026  172.1799 H       1  UNL1        0.1192
     26 C         141.2226  144.3044  158.9865 C.2     1  UNL1        0.2428
     27 N         141.8787  145.2331  159.9650 N.am    1  UNL1       -0.3253
     28 O         140.7927  144.8129  157.6424 O.2     1  UNL1       -0.2704
     29 H         142.1608  144.8993  160.8472 H       1  UNL1        0.1453
     30 H         142.0271  146.1762  159.7250 H       1  UNL1        0.1453
     31 C         142.1263  139.2547  158.1599 C.ar    1  UNL1        0.2600
     32 N         141.5694  137.8895  157.8839 N.ar    1  UNL1       -0.1865
     33 C         142.5793  137.1321  157.0735 C.ar    1  UNL1        0.2096
     34 N         143.7603  138.0293  156.8487 N.ar    1  UNL1       -0.0551
     35 O         143.4803  139.3411  157.5201 O.2     1  UNL1       -0.3324
     36 C         142.4337  135.7248  156.5753 C.ar    1  UNL1        0.0685
     37 C         141.4894  135.2613  155.5061 C.ar    1  UNL1        0.0102
     38 C         141.6790  133.7839  155.3289 C.ar    1  UNL1        0.0076
     39 C         142.7404  133.3344  156.2887 C.ar    1  UNL1        0.0355
     40 S         143.2069  134.5339  157.0591 S.2     1  UNL1       -0.0832
@<TRIPOS>BOND
     1    22    23    1
     2    23    15    1
     3    15    16   ar
     4    16    17   ar
     5    17    18   ar
     6    18    19    1
     7    18    20   ar
     8    20     7    1
     9     7     8    1
    10     8     9    1
    11     9    10    1
    12    10    11   am
    13    11    12    2
    14    11     1    1
    15     1     2   ar
    16     2     3   ar
    17     3    26    1
    18    26    27   am
    19    26    28    2
    20     3     4   ar
    21     4     5   ar
    22     5    31    1
    23    31    32   ar
    24    32    33   ar
    25    33    36    1
    26    36    37   ar
    27    37    38   ar
    28    38    39   ar
    29    39    40   ar
    30    33    34   ar
    31    34    35   ar
    32     5     6   ar
    33    10    13    1
    34    13    14    1
    35    20    21   ar
    36    21    15   ar
    37    14     7    1
    38     6     1   ar
    39    35    31   ar
    40    40    36   ar
    41    22    24    1
    42    22    25    1
    43    27    29    1
    44    27    30    1
@<TRIPOS>MOLECULE
*****
 40 44 0 0 0
SMALL
GASTEIGER

@<TRIPOS>ATOM
      1 C         142.9955  143.2645  161.0722 C.ar    1  UNL1        0.0539
      2 C         141.5300  143.4178  160.7915 C.ar    1  UNL1        0.0090
      3 C         140.9602  142.9311  159.4921 C.ar    1  UNL1        0.0534
      4 C         141.8560  142.2910  158.4733 C.ar    1  UNL1        0.0092
      5 C         143.3215  142.1377  158.7540 C.ar    1  UNL1        0.0564
      6 C         143.8912  142.6244  160.0534 C.ar    1  UNL1        0.0093
      7 C         142.5797  141.6080  166.2037 C.3     1  UNL1        0.0279
      8 C         142.0099  141.1213  164.9043 C.3     1  UNL1        0.0260
      9 C         142.3384  141.8357  163.6269 C.3     1  UNL1        0.0940
     10 N         143.2367  143.0368  163.6489 N.am    1  UNL1       -0.2761
     11 C         143.5652  143.7512  162.3716 C.2     1  UNL1        0.2490
     12 O         144.4634  144.9523  162.3936 O.2     1  UNL1       -0.2699
     13 C         143.8064  143.5235  164.9484 C.3     1  UNL1        0.0940
     14 C         143.4779  142.8091  166.2258 C.3     1  UNL1        0.0260
     15 C         141.0098  140.8190  169.7623 C.ar    1  UNL1       -0.0068
     16 C         141.5942  139.4650  170.0360 C.ar    1  UNL1       -0.0006
     17 C         142.5070  138.8252  169.0323 C.ar    1  UNL1        0.0290
     18 C         142.8355  139.5395  167.7549 C.ar    1  UNL1        0.1361
     19 F         143.7484  138.8998  166.7512 F       1  UNL1       -0.2045
     20 C         142.2512  140.8936  167.4812 C.ar    1  UNL1        0.0048
     21 C         141.3383  141.5334  168.4849 C.ar    1  UNL1       -0.0050
     22 N         140.6712  142.1864  171.9453 N.3     1  UNL1       -0.3175
     23 C         140.0970  141.4588  170.7660 C.3     1  UNL1        0.0922
     24 H         139.9130  142.5556  172.5191 H       1  UNL1        0.1192
     25 H         141.2558  142.9556  171.6185 H       1  UNL1        0.1192
     26 C         139.4947  143.0844  159.2114 C.2     1  UNL1        0.2428
     27 N         138.5079  143.0574  160.3409 N.am    1  UNL1       -0.3253
     28 O         139.0160  143.2648  157.8014 O.2     1  UNL1       -0.2704
     29 H         138.8222  142.9390  161.2663 H       1  UNL1        0.1453
     30 H         137.5461  143.1580  160.1567 H       1  UNL1        0.1453
     31 C         144.2173  141.4976  157.7353 C.ar    1  UNL1        0.2600
     32 N         145.2531  142.1987  156.9073 N.ar    1  UNL1       -0.1865
     33 C         145.9106  141.1784  156.0259 C.ar    1  UNL1        0.2096
     34 N         145.2810  139.8466  156.3091 N.ar    1  UNL1       -0.0551
     35 O         144.2345  140.0439  157.3655 O.2     1  UNL1       -0.3324
     36 C         147.0053  141.4433  155.0353 C.ar    1  UNL1        0.0685
     37 C         146.8788  141.3749  153.5422 C.ar    1  UNL1        0.0102
     38 C         148.2140  141.7125  152.9480 C.ar    1  UNL1        0.0076
     39 C         149.1658  141.9895  154.0738 C.ar    1  UNL1        0.0355
     40 S         148.4187  141.8231  155.3638 S.2     1  UNL1       -0.0832
@<TRIPOS>BOND
     1    22    23    1
     2    23    15    1
     3    15    16   ar
     4    16    17   ar
     5    17    18   ar
     6    18    19    1
     7    18    20   ar
     8    20     7    1
     9     7     8    1
    10     8     9    1
    11     9    10    1
    12    10    11   am
    13    11    12    2
    14    11     1    1
    15     1     2   ar
    16     2     3   ar
    17     3    26    1
    18    26    27   am
    19    26    28    2
    20     3     4   ar
    21     4     5   ar
    22     5    31    1
    23    31    32   ar
    24    32    33   ar
    25    33    36    1
    26    36    37   ar
    27    37    38   ar
    28    38    39   ar
    29    39    40   ar
    30    33    34   ar
    31    34    35   ar
    32     5     6   ar
    33    10    13    1
    34    13    14    1
    35    20    21   ar
    36    21    15   ar
    37    14     7    1
    38     6     1   ar
    39    35    31   ar
    40    40    36   ar
    41    22    24    1
    42    22    25    1
    43    27    29    1
    44    27    30    1
@<TRIPOS>MOLECULE
*****
 40 44 0 0 0
SMALL
GASTEIGER

@<TRIPOS>ATOM
      1 C         139.2580  139.7233  160.5275 C.ar    1  UNL1        0.0539
      2 C         138.9682  141.1131  160.0434 C.ar    1  UNL1        0.0090
      3 C         139.6016  141.6144  158.7795 C.ar    1  UNL1        0.0534
      4 C         140.5249  140.7258  157.9997 C.ar    1  UNL1        0.0092
      5 C         140.8147  139.3360  158.4838 C.ar    1  UNL1        0.0564
      6 C         140.1813  138.8347  159.7477 C.ar    1  UNL1        0.0093
      7 C         140.3556  140.3683  165.7838 C.3     1  UNL1        0.0279
      8 C         140.9890  140.8696  164.5200 C.3     1  UNL1        0.0260
      9 C         140.4120  140.4875  163.1891 C.3     1  UNL1        0.0940
     10 N         139.2016  139.6041  163.1222 N.am    1  UNL1       -0.2761
     11 C         138.6246  139.2220  161.7914 C.2     1  UNL1        0.2490
     12 O         137.4141  138.3386  161.7245 O.2     1  UNL1       -0.2699
     13 C         138.5681  139.1028  164.3862 C.3     1  UNL1        0.0940
     14 C         139.1451  139.4849  165.7169 C.3     1  UNL1        0.0260
     15 C         140.9513  142.3051  169.1962 C.ar    1  UNL1       -0.0068
     16 C         142.0864  141.5147  169.7763 C.ar    1  UNL1       -0.0006
     17 C         142.6447  140.3421  169.0256 C.ar    1  UNL1        0.0290
     18 C         142.0677  139.9600  167.6948 C.ar    1  UNL1        0.1361
     19 F         142.6260  138.7875  166.9441 F       1  UNL1       -0.2045
     20 C         140.9326  140.7504  167.1147 C.ar    1  UNL1        0.0048
     21 C         140.3743  141.9230  167.8654 C.ar    1  UNL1       -0.0050
     22 N         139.4340  143.2559  171.0787 N.3     1  UNL1       -0.3175
     23 C         140.3930  143.4776  169.9469 C.3     1  UNL1        0.0922
     24 H         139.1584  144.1557  171.4720 H       1  UNL1        0.1192
     25 H         139.8841  142.6929  171.8004 H       1  UNL1        0.1192
     26 C         139.3118  143.0042  158.2954 C.2     1  UNL1        0.2428
     27 N         138.7776  143.2198  156.9103 N.am    1  UNL1       -0.3253
     28 O         139.5562  144.1784  159.1962 O.2     1  UNL1       -0.2704
     29 H         138.6172  142.4492  156.3191 H       1  UNL1        0.1453
     30 H         138.5874  144.1320  156.5926 H       1  UNL1        0.1453
     31 C         141.7379  138.4475  157.7041 C.ar    1  UNL1        0.2600
     32 N         141.3964  137.1011  157.1378 N.ar    1  UNL1       -0.1865
     33 C         142.6123  136.5707  156.4374 C.ar    1  UNL1        0.2096
     34 N         143.7052  137.5895  156.5707 N.ar    1  UNL1       -0.0551
     35 O         143.1649  138.7493  157.3535 O.2     1  UNL1       -0.3324
     36 C         142.7168  135.2532  155.7282 C.ar    1  UNL1        0.0685
     37 C         142.3101  134.9803  154.3104 C.ar    1  UNL1        0.0102
     38 C         142.5883  133.5356  154.0182 C.ar    1  UNL1        0.0076
     39 C         143.1670  132.9156  155.2554 C.ar    1  UNL1        0.0355
     40 S         143.2464  133.9771  156.3123 S.2     1  UNL1       -0.0832
@<TRIPOS>BOND
     1    22    23    1
     2    23    15    1
     3    15    16   ar
     4    16    17   ar
     5    17    18   ar
     6    18    19    1
     7    18    20   ar
     8    20     7    1
     9     7     8    1
    10     8     9    1
    11     9    10    1
    12    10    11   am
    13    11    12    2
    14    11     1    1
    15     1     2   ar
    16     2     3   ar
    17     3    26    1
    18    26    27   am
    19    26    28    2
    20     3     4   ar
    21     4     5   ar
    22     5    31    1
    23    31    32   ar
    24    32    33   ar
    25    33    36    1
    26    36    37   ar
    27    37    38   ar
    28    38    39   ar
    29    39    40   ar
    30    33    34   ar
    31    34    35   ar
    32     5     6   ar
    33    10    13    1
    34    13    14    1
    35    20    21   ar
    36    21    15   ar
    37    14     7    1
    38     6     1   ar
    39    35    31   ar
    40    40    36   ar
    41    22    24    1
    42    22    25    1
    43    27    29    1
    44    27    30    1
@<TRIPOS>MOLECULE
*****
 40 44 0 0 0
SMALL
GASTEIGER

@<TRIPOS>ATOM
      1 C         140.3313  143.6333  160.0106 C.ar    1  UNL1        0.0539
      2 C         141.7625  143.5413  159.5712 C.ar    1  UNL1        0.0090
      3 C         142.1244  142.7369  158.3578 C.ar    1  UNL1        0.0534
      4 C         141.0549  142.0246  157.5839 C.ar    1  UNL1        0.0092
      5 C         139.6237  142.1167  158.0233 C.ar    1  UNL1        0.0564
      6 C         139.2619  142.9210  159.2366 C.ar    1  UNL1        0.0093
      7 C         140.0695  142.5315  165.2989 C.3     1  UNL1        0.0279
      8 C         140.4313  141.7271  164.0857 C.3     1  UNL1        0.0260
      9 C         140.3980  142.3625  162.7272 C.3     1  UNL1        0.0940
     10 N         140.0028  143.8023  162.5822 N.am    1  UNL1       -0.2761
     11 C         139.9694  144.4377  161.2239 C.2     1  UNL1        0.2490
     12 O         139.5743  145.8774  161.0788 O.2     1  UNL1       -0.2699
     13 C         139.6409  144.6066  163.7956 C.3     1  UNL1        0.0940
     14 C         139.6743  143.9712  165.1539 C.3     1  UNL1        0.0260
     15 C         140.8375  141.9495  169.1488 C.ar    1  UNL1       -0.0068
     16 C         140.1695  140.6254  169.3741 C.ar    1  UNL1       -0.0006
     17 C         139.4682  139.9367  168.2410 C.ar    1  UNL1        0.0290
     18 C         139.4349  140.5721  166.8826 C.ar    1  UNL1        0.1361
     19 F         138.7336  139.8834  165.7496 F       1  UNL1       -0.2045
     20 C         140.1028  141.8961  166.6574 C.ar    1  UNL1        0.0048
     21 C         140.8041  142.5848  167.7905 C.ar    1  UNL1       -0.0050
     22 N         141.2705  142.2175  171.6965 N.3     1  UNL1       -0.3175
     23 C         141.5387  142.6382  170.2819 C.3     1  UNL1        0.0922
     24 H         141.8281  142.7877  172.3323 H       1  UNL1        0.1192
     25 H         141.5205  141.2355  171.8124 H       1  UNL1        0.1192
     26 C         143.5556  142.6449  157.9185 C.2     1  UNL1        0.2428
     27 N         144.6495  142.5529  158.9407 N.am    1  UNL1       -0.3253
     28 O         143.8929  142.6449  156.4569 O.2     1  UNL1       -0.2704
     29 H         144.4281  142.5529  159.9000 H       1  UNL1        0.1453
     30 H         145.5889  142.4925  158.6523 H       1  UNL1        0.1453
     31 C         138.5543  141.4044  157.2494 C.ar    1  UNL1        0.2600
     32 N         137.0927  141.7419  157.2495 N.ar    1  UNL1       -0.1865
     33 C         136.3938  140.7756  156.3396 C.ar    1  UNL1        0.2096
     34 N         137.4234  139.8408  155.7773 N.ar    1  UNL1       -0.0551
     35 O         138.7586  140.2294  156.3395 O.2     1  UNL1       -0.3324
     36 C         134.9234  140.7487  156.0440 C.ar    1  UNL1        0.0685
     37 C         134.2327  141.4908  154.9385 C.ar    1  UNL1        0.0102
     38 C         132.7681  141.1758  155.0133 C.ar    1  UNL1        0.0076
     39 C         132.5537  140.2390  156.1650 C.ar    1  UNL1        0.0355
     40 S         133.8858  139.9751  156.8021 S.2     1  UNL1       -0.0832
@<TRIPOS>BOND
     1    22    23    1
     2    23    15    1
     3    15    16   ar
     4    16    17   ar
     5    17    18   ar
     6    18    19    1
     7    18    20   ar
     8    20     7    1
     9     7     8    1
    10     8     9    1
    11     9    10    1
    12    10    11   am
    13    11    12    2
    14    11     1    1
    15     1     2   ar
    16     2     3   ar
    17     3    26    1
    18    26    27   am
    19    26    28    2
    20     3     4   ar
    21     4     5   ar
    22     5    31    1
    23    31    32   ar
    24    32    33   ar
    25    33    36    1
    26    36    37   ar
    27    37    38   ar
    28    38    39   ar
    29    39    40   ar
    30    33    34   ar
    31    34    35   ar
    32     5     6   ar
    33    10    13    1
    34    13    14    1
    35    20    21   ar
    36    21    15   ar
    37    14     7    1
    38     6     1   ar
    39    35    31   ar
    40    40    36   ar
    41    22    24    1
    42    22    25    1
    43    27    29    1
    44    27    30    1
@<TRIPOS>MOLECULE
*****
 40 44 0 0 0
SMALL
GASTEIGER

@<TRIPOS>ATOM
      1 C         141.0932  140.0884  159.8929 C.ar    1  UNL1        0.0539
      2 C         141.8199  141.3837  159.6832 C.ar    1  UNL1        0.0090
      3 C         142.9545  141.4572  158.7046 C.ar    1  UNL1        0.0534
      4 C         143.3623  140.2354  157.9359 C.ar    1  UNL1        0.0092
      5 C         142.6355  138.9401  158.1457 C.ar    1  UNL1        0.0564
      6 C         141.5010  138.8665  159.1242 C.ar    1  UNL1        0.0093
      7 C         140.6949  140.8295  165.2354 C.3     1  UNL1        0.0279
      8 C         141.8294  140.9031  164.2569 C.3     1  UNL1        0.0260
      9 C         141.5840  140.6315  162.8022 C.3     1  UNL1        0.0940
     10 N         140.2041  140.2864  162.3260 N.am    1  UNL1       -0.2761
     11 C         139.9587  140.0148  160.8714 C.2     1  UNL1        0.2490
     12 O         138.5788  139.6697  160.3953 O.2     1  UNL1       -0.2699
     13 C         139.0696  140.2128  163.3046 C.3     1  UNL1        0.0940
     14 C         139.3150  140.4844  164.7592 C.3     1  UNL1        0.0260
     15 C         141.8199  140.3219  169.0072 C.ar    1  UNL1       -0.0068
     16 C         141.4311  141.6441  169.5994 C.ar    1  UNL1       -0.0006
     17 C         140.7969  142.6947  168.7369 C.ar    1  UNL1        0.0290
     18 C         140.5515  142.4232  167.2822 C.ar    1  UNL1        0.1361
     19 F         139.9173  143.4739  166.4197 F       1  UNL1       -0.2045
     20 C         140.9403  141.1011  166.6901 C.ar    1  UNL1        0.0048
     21 C         141.5745  140.0504  167.5526 C.ar    1  UNL1       -0.0050
     22 N         143.2952  139.6730  171.0449 N.3     1  UNL1       -0.3175
     23 C         142.4541  139.2713  169.8697 C.3     1  UNL1        0.0922
     24 H         143.6440  138.8375  171.5148 H       1  UNL1        0.1192
     25 H         142.7309  140.2188  171.6962 H       1  UNL1        0.1192
     26 C         143.6812  142.7525  158.4948 C.2     1  UNL1        0.2428
     27 N         142.9430  144.0535  158.6078 N.am    1  UNL1       -0.3253
     28 O         145.1460  142.7470  158.1722 O.2     1  UNL1       -0.2704
     29 H         141.9815  144.0571  158.8196 H       1  UNL1        0.1453
     30 H         143.4199  144.9037  158.4701 H       1  UNL1        0.1453
     31 C         143.0433  137.7183  157.3770 C.ar    1  UNL1        0.2600
     32 N         142.7371  136.2983  157.7510 N.ar    1  UNL1       -0.1865
     33 C         143.3335  135.4044  156.7044 C.ar    1  UNL1        0.2096
     34 N         144.0083  136.2719  155.6836 N.ar    1  UNL1       -0.0551
     35 O         143.8290  137.7020  156.0992 O.2     1  UNL1       -0.3324
     36 C         143.2668  133.9060  156.6825 C.ar    1  UNL1        0.0685
     37 C         144.1780  132.9721  157.4223 C.ar    1  UNL1        0.0102
     38 C         143.7515  131.5674  157.1140 C.ar    1  UNL1        0.0076
     39 C         142.5768  131.6333  156.1837 C.ar    1  UNL1        0.0355
     40 S         142.2772  133.0787  155.9170 S.2     1  UNL1       -0.0832
@<TRIPOS>BOND
     1    22    23    1
     2    23    15    1
     3    15    16   ar
     4    16    17   ar
     5    17    18   ar
     6    18    19    1
     7    18    20   ar
     8    20     7    1
     9     7     8    1
    10     8     9    1
    11     9    10    1
    12    10    11   am
    13    11    12    2
    14    11     1    1
    15     1     2   ar
    16     2     3   ar
    17     3    26    1
    18    26    27   am
    19    26    28    2
    20     3     4   ar
    21     4     5   ar
    22     5    31    1
    23    31    32   ar
    24    32    33   ar
    25    33    36    1
    26    36    37   ar
    27    37    38   ar
    28    38    39   ar
    29    39    40   ar
    30    33    34   ar
    31    34    35   ar
    32     5     6   ar
    33    10    13    1
    34    13    14    1
    35    20    21   ar
    36    21    15   ar
    37    14     7    1
    38     6     1   ar
    39    35    31   ar
    40    40    36   ar
    41    22    24    1
    42    22    25    1
    43    27    29    1
    44    27    30    1
