@<TRIPOS>MOLECULE
*****
 41 45 0 0 0
SMALL
GASTEIGER

@<TRIPOS>ATOM
      1 N         138.7617  143.8860  162.5234 N.ar    1  UNL1       -0.2399
      2 C         138.6906  142.4128  162.2502 C.ar    1  UNL1        0.2819
      3 O         137.9501  141.5102  163.1920 O.2     1  UNL1       -0.2652
      4 C         139.3600  141.8422  161.0352 C.ar    1  UNL1        0.1349
      5 C         140.1005  142.7448  160.0934 C.ar    1  UNL1        0.0966
      6 C         140.6579  141.9015  158.9851 C.ar    1  UNL1        0.1156
      7 C         140.2619  140.4777  159.2420 C.ar    1  UNL1        0.1240
      8 N         139.4598  140.4411  160.5090 N.ar    1  UNL1       -0.3063
      9 N         140.1716  144.2180  160.3665 N.ar    1  UNL1       -0.2770
     10 C         140.9121  145.1206  159.4247 C.3     1  UNL1        0.1351
     11 C         139.5022  144.7885  161.5816 C.ar    1  UNL1        0.3343
     12 O         139.5733  146.2618  161.8548 O.2     1  UNL1       -0.2462
     13 N         140.6073  139.2977  158.3828 N.pl3   1  UNL1       -0.2926
     14 C         142.0191  138.7932  158.3339 C.3     1  UNL1        0.0922
     15 C         142.3645  137.6132  157.4746 C.3     1  UNL1        0.0229
     16 C         141.2981  136.9376  156.6643 C.3     1  UNL1        0.0190
     17 C         139.8864  137.4421  156.7132 C.3     1  UNL1        0.0709
     18 N         138.8200  136.7667  155.9030 N.3     1  UNL1       -0.3208
     19 C         139.5410  138.6222  157.5725 C.3     1  UNL1        0.1075
     20 H         137.9279  137.2371  156.0555 H       1  UNL1        0.1189
     21 H         138.7429  135.7906  156.1888 H       1  UNL1        0.1189
     22 C         141.4689  142.3953  157.8239 C.1     1  UNL1        0.1047
     23 N         142.2799  142.8890  156.6627 N.1     1  UNL1       -0.1907
     24 C         138.0923  144.4566  163.7385 C.3     1  UNL1        0.1826
     25 C         138.8437  144.5530  165.0330 C.2     1  UNL1        0.1961
     26 O         138.3660  145.4809  166.1104 O.2     1  UNL1       -0.2893
     27 C         142.6085  143.3093  164.8608 C.ar    1  UNL1        0.1388
     28 C         142.5318  142.0583  165.6848 C.ar    1  UNL1        0.0369
     29 C         141.2258  141.6389  166.2916 C.ar    1  UNL1        0.0032
     30 C         139.9964  142.4703  166.0744 C.ar    1  UNL1        0.0031
     31 C         140.0731  143.7214  165.2503 C.ar    1  UNL1        0.0397
     32 C         141.3792  144.1409  164.6435 C.ar    1  UNL1        0.0398
     33 C         143.9349  144.4295  162.9279 C.3     1  UNL1        0.2525
     34 O         143.9146  143.7288  164.2540 O.3     1  UNL1       -0.4714
     35 C         138.8623  139.2180  161.1392 C.3     1  UNL1        0.1341
     36 C         139.5602  138.5478  162.2853 C.ar    1  UNL1        0.0004
     37 C         138.7914  138.1788  163.5193 C.ar    1  UNL1       -0.0024
     38 C         139.4894  137.5085  164.6654 C.ar    1  UNL1       -0.0003
     39 C         140.9563  137.2073  164.5776 C.ar    1  UNL1       -0.0000
     40 C         141.7250  137.5762  163.3436 C.ar    1  UNL1       -0.0003
     41 C         141.0271  138.2465  162.1974 C.ar    1  UNL1       -0.0024
@<TRIPOS>BOND
     1    33    34    1
     2    34    27    1
     3    27    28   ar
     4    28    29   ar
     5    29    30   ar
     6    30    31   ar
     7    31    25    1
     8    25    26    2
     9    25    24    1
    10    24     1    1
    11     1     2   ar
    12     2     3    2
    13     2     4   ar
    14     4     5   ar
    15     5     6   ar
    16     6    22    1
    17    22    23    3
    18     6     7   ar
    19     7    13    1
    20    13    14    1
    21    14    15    1
    22    15    16    1
    23    16    17    1
    24    17    18    1
    25    17    19    1
    26     7     8   ar
    27     8    35    1
    28    35    36    1
    29    36    37   ar
    30    37    38   ar
    31    38    39   ar
    32    39    40   ar
    33    40    41   ar
    34     5     9   ar
    35     9    10    1
    36     9    11   ar
    37    11    12    2
    38    31    32   ar
    39    32    27   ar
    40    11     1   ar
    41     8     4   ar
    42    41    36   ar
    43    19    13    1
    44    18    20    1
    45    18    21    1
@<TRIPOS>MOLECULE
*****
 41 45 0 0 0
SMALL
GASTEIGER

@<TRIPOS>ATOM
      1 N         141.3929  139.3253  161.4874 N.ar    1  UNL1       -0.2399
      2 C         142.0249  139.9922  162.6730 C.ar    1  UNL1        0.2819
      3 O         143.2585  140.8267  162.4948 O.2     1  UNL1       -0.2652
      4 C         141.4233  139.8247  164.0368 C.ar    1  UNL1        0.1349
      5 C         140.1897  138.9902  164.2150 C.ar    1  UNL1        0.0966
      6 C         139.8251  139.0065  165.6699 C.ar    1  UNL1        0.1156
      7 C         140.8334  139.8512  166.3909 C.ar    1  UNL1        0.1240
      8 N         141.8212  140.3568  165.3816 N.ar    1  UNL1       -0.3063
      9 N         139.5576  138.3232  163.0294 N.ar    1  UNL1       -0.2770
     10 C         138.3240  137.4887  163.2075 C.3     1  UNL1        0.1351
     11 C         140.1593  138.4908  161.6656 C.ar    1  UNL1        0.3343
     12 O         139.5273  137.8238  160.4799 O.2     1  UNL1       -0.2462
     13 N         140.8510  140.1395  167.8628 N.pl3   1  UNL1       -0.2926
     14 C         139.6816  140.8230  168.5072 C.3     1  UNL1        0.0922
     15 C         139.6992  141.1113  169.9792 C.3     1  UNL1        0.0229
     16 C         140.8862  140.7162  170.8067 C.3     1  UNL1        0.0190
     17 C         142.0557  140.0328  170.1623 C.3     1  UNL1        0.0709
     18 N         143.2427  139.6376  170.9898 N.3     1  UNL1       -0.3208
     19 C         142.0380  139.7444  168.6904 C.3     1  UNL1        0.1075
     20 H         143.9381  139.1884  170.3940 H       1  UNL1        0.1189
     21 H         142.9481  138.9874  171.7183 H       1  UNL1        0.1189
     22 C         138.6573  138.3020  166.2942 C.1     1  UNL1        0.1047
     23 N         137.4894  137.5974  166.9185 N.1     1  UNL1       -0.1907
     24 C         141.9946  139.4928  160.1235 C.3     1  UNL1        0.1826
     25 C         141.5161  140.5927  159.2228 C.2     1  UNL1        0.1961
     26 O         141.4674  140.3791  157.7388 O.2     1  UNL1       -0.2893
     27 C         139.2997  143.3545  161.0144 C.ar    1  UNL1        0.1388
     28 C         140.2267  144.5330  160.9722 C.ar    1  UNL1        0.0369
     29 C         141.5833  144.3982  160.3469 C.ar    1  UNL1        0.0032
     30 C         142.0132  143.0848  159.7637 C.ar    1  UNL1        0.0031
     31 C         141.0863  141.9061  159.8059 C.ar    1  UNL1        0.0397
     32 C         139.7295  142.0410  160.4313 C.ar    1  UNL1        0.0398
     33 C         137.7953  144.1595  162.9737 C.3     1  UNL1        0.2525
     34 O         137.9430  143.4894  161.6398 O.3     1  UNL1       -0.4714
     35 C         142.9998  141.2396  165.6670 C.3     1  UNL1        0.1341
     36 C         143.0322  142.6423  165.1365 C.ar    1  UNL1        0.0004
     37 C         141.7776  143.2744  164.6108 C.ar    1  UNL1       -0.0024
     38 C         141.8099  144.6771  164.0803 C.ar    1  UNL1       -0.0003
     39 C         143.0969  145.4477  164.0755 C.ar    1  UNL1       -0.0000
     40 C         144.3514  144.8156  164.6012 C.ar    1  UNL1       -0.0003
     41 C         144.3192  143.4129  165.1317 C.ar    1  UNL1       -0.0024
@<TRIPOS>BOND
     1    33    34    1
     2    34    27    1
     3    27    28   ar
     4    28    29   ar
     5    29    30   ar
     6    30    31   ar
     7    31    25    1
     8    25    26    2
     9    25    24    1
    10    24     1    1
    11     1     2   ar
    12     2     3    2
    13     2     4   ar
    14     4     5   ar
    15     5     6   ar
    16     6    22    1
    17    22    23    3
    18     6     7   ar
    19     7    13    1
    20    13    14    1
    21    14    15    1
    22    15    16    1
    23    16    17    1
    24    17    18    1
    25    17    19    1
    26     7     8   ar
    27     8    35    1
    28    35    36    1
    29    36    37   ar
    30    37    38   ar
    31    38    39   ar
    32    39    40   ar
    33    40    41   ar
    34     5     9   ar
    35     9    10    1
    36     9    11   ar
    37    11    12    2
    38    31    32   ar
    39    32    27   ar
    40    11     1   ar
    41     8     4   ar
    42    41    36   ar
    43    19    13    1
    44    18    20    1
    45    18    21    1
@<TRIPOS>MOLECULE
*****
 41 45 0 0 0
SMALL
GASTEIGER

@<TRIPOS>ATOM
      1 N         140.5948  143.0640  160.9798 N.ar    1  UNL1       -0.2399
      2 C         139.9168  142.5784  162.2265 C.ar    1  UNL1        0.2819
      3 O         138.5098  142.0624  162.1628 O.2     1  UNL1       -0.2652
      4 C         140.6458  142.6088  163.5371 C.ar    1  UNL1        0.1349
      5 C         142.0528  143.1249  163.6009 C.ar    1  UNL1        0.0966
      6 C         142.5157  143.0344  165.0248 C.ar    1  UNL1        0.1156
      7 C         141.3947  142.4625  165.8411 C.ar    1  UNL1        0.1240
      8 N         140.2391  142.1994  164.9217 N.ar    1  UNL1       -0.3063
      9 N         142.7308  143.6105  162.3541 N.ar    1  UNL1       -0.2770
     10 C         144.1379  144.1266  162.4178 C.3     1  UNL1        0.1351
     11 C         142.0017  143.5800  161.0435 C.ar    1  UNL1        0.3343
     12 O         142.6798  144.0657  159.7966 O.2     1  UNL1       -0.2462
     13 N         141.4242  142.1997  167.3176 N.pl3   1  UNL1       -0.2926
     14 C         142.3014  141.1150  167.8690 C.3     1  UNL1        0.0922
     15 C         142.3307  140.8523  169.3455 C.3     1  UNL1        0.0229
     16 C         141.4830  141.6741  170.2707 C.3     1  UNL1        0.0190
     17 C         140.6058  142.7588  169.7193 C.3     1  UNL1        0.0709
     18 N         139.7580  143.5807  170.6443 N.3     1  UNL1       -0.3208
     19 C         140.5764  143.0215  168.2427 C.3     1  UNL1        0.1075
     20 H         139.2303  144.2657  170.1033 H       1  UNL1        0.1189
     21 H         140.3562  144.0642  171.3142 H       1  UNL1        0.1189
     22 C         143.8629  143.4440  165.5417 C.1     1  UNL1        0.1047
     23 N         145.2102  143.8536  166.0586 N.1     1  UNL1       -0.1907
     24 C         139.8657  143.0336  159.6692 C.3     1  UNL1        0.1826
     25 C         139.7076  141.7386  158.9289 C.2     1  UNL1        0.1961
     26 O         138.5161  141.5211  158.0439 O.2     1  UNL1       -0.2893
     27 C         141.6676  138.5870  160.3347 C.ar    1  UNL1        0.1388
     28 C         142.8075  138.5057  159.3631 C.ar    1  UNL1        0.0369
     29 C         142.9142  139.5019  158.2469 C.ar    1  UNL1        0.0032
     30 C         141.8809  140.5796  158.1020 C.ar    1  UNL1        0.0031
     31 C         140.7409  140.6609  159.0736 C.ar    1  UNL1        0.0397
     32 C         140.6343  139.6647  160.1899 C.ar    1  UNL1        0.0398
     33 C         142.3078  137.8170  162.7320 C.3     1  UNL1        0.2525
     34 O         141.5610  137.5908  161.4510 O.3     1  UNL1       -0.4714
     35 C         138.9101  141.6274  165.3173 C.3     1  UNL1        0.1341
     36 C         138.7295  140.1410  165.4050 C.ar    1  UNL1        0.0004
     37 C         138.0547  139.5366  166.6006 C.ar    1  UNL1       -0.0024
     38 C         137.8741  138.0502  166.6883 C.ar    1  UNL1       -0.0003
     39 C         138.3684  137.1679  165.5804 C.ar    1  UNL1       -0.0000
     40 C         139.0432  137.7722  164.3848 C.ar    1  UNL1       -0.0003
     41 C         139.2238  139.2587  164.2971 C.ar    1  UNL1       -0.0024
@<TRIPOS>BOND
     1    33    34    1
     2    34    27    1
     3    27    28   ar
     4    28    29   ar
     5    29    30   ar
     6    30    31   ar
     7    31    25    1
     8    25    26    2
     9    25    24    1
    10    24     1    1
    11     1     2   ar
    12     2     3    2
    13     2     4   ar
    14     4     5   ar
    15     5     6   ar
    16     6    22    1
    17    22    23    3
    18     6     7   ar
    19     7    13    1
    20    13    14    1
    21    14    15    1
    22    15    16    1
    23    16    17    1
    24    17    18    1
    25    17    19    1
    26     7     8   ar
    27     8    35    1
    28    35    36    1
    29    36    37   ar
    30    37    38   ar
    31    38    39   ar
    32    39    40   ar
    33    40    41   ar
    34     5     9   ar
    35     9    10    1
    36     9    11   ar
    37    11    12    2
    38    31    32   ar
    39    32    27   ar
    40    11     1   ar
    41     8     4   ar
    42    41    36   ar
    43    19    13    1
    44    18    20    1
    45    18    21    1
@<TRIPOS>MOLECULE
*****
 41 45 0 0 0
SMALL
GASTEIGER

@<TRIPOS>ATOM
      1 N         140.5361  143.3019  161.1069 N.ar    1  UNL1       -0.2399
      2 C         139.8829  142.7347  162.3323 C.ar    1  UNL1        0.2819
      3 O         138.4835  142.2000  162.2570 O.2     1  UNL1       -0.2652
      4 C         140.6293  142.7021  163.6331 C.ar    1  UNL1        0.1349
      5 C         142.0287  143.2368  163.7084 C.ar    1  UNL1        0.0966
      6 C         142.5124  143.0727  165.1188 C.ar    1  UNL1        0.1156
      7 C         141.4118  142.4366  165.9151 C.ar    1  UNL1        0.1240
      8 N         140.2480  142.2075  164.9969 N.ar    1  UNL1       -0.3063
      9 N         142.6818  143.8040  162.4830 N.ar    1  UNL1       -0.2770
     10 C         144.0813  144.3387  162.5583 C.3     1  UNL1        0.1351
     11 C         141.9354  143.8366  161.1822 C.ar    1  UNL1        0.3343
     12 O         142.5886  144.4039  159.9568 O.2     1  UNL1       -0.2462
     13 N         141.4656  142.0902  167.3736 N.pl3   1  UNL1       -0.2926
     14 C         140.7669  142.9591  168.3770 C.3     1  UNL1        0.0922
     15 C         140.8208  142.6127  169.8355 C.3     1  UNL1        0.0229
     16 C         141.5732  141.3975  170.2906 C.3     1  UNL1        0.0190
     17 C         142.2719  140.5287  169.2871 C.3     1  UNL1        0.0709
     18 N         143.0244  139.3135  169.7421 N.3     1  UNL1       -0.3208
     19 C         142.2181  140.8751  167.8286 C.3     1  UNL1        0.1075
     20 H         143.4337  138.8446  168.9339 H       1  UNL1        0.1189
     21 H         142.3855  138.6761  170.2174 H       1  UNL1        0.1189
     22 C         143.8600  143.4742  165.6411 C.1     1  UNL1        0.1047
     23 N         145.2075  143.8756  166.1634 N.1     1  UNL1       -0.1907
     24 C         139.7897  143.3345  159.8062 C.3     1  UNL1        0.1826
     25 C         139.8151  142.1418  158.8969 C.2     1  UNL1        0.1961
     26 O         139.4536  142.2945  157.4491 O.2     1  UNL1       -0.2893
     27 C         142.0370  139.0723  160.0764 C.ar    1  UNL1        0.1388
     28 C         140.9762  138.1055  160.5123 C.ar    1  UNL1        0.0369
     29 C         139.5285  138.4840  160.4097 C.ar    1  UNL1        0.0032
     30 C         139.1413  139.8295  159.8713 C.ar    1  UNL1        0.0031
     31 C         140.2022  140.7964  159.4354 C.ar    1  UNL1        0.0397
     32 C         141.6500  140.4177  159.5380 C.ar    1  UNL1        0.0398
     33 C         143.9660  137.8776  161.3420 C.3     1  UNL1        0.2525
     34 O         143.4848  138.6936  160.1790 O.3     1  UNL1       -0.4714
     35 C         138.9337  141.5920  165.3760 C.3     1  UNL1        0.1341
     36 C         138.7797  140.1000  165.3870 C.ar    1  UNL1        0.0004
     37 C         139.3071  139.2832  164.2448 C.ar    1  UNL1       -0.0024
     38 C         139.1531  137.7911  164.2557 C.ar    1  UNL1       -0.0003
     39 C         138.4716  137.1159  165.4089 C.ar    1  UNL1       -0.0000
     40 C         137.9442  137.9327  166.5510 C.ar    1  UNL1       -0.0003
     41 C         138.0981  139.4248  166.5401 C.ar    1  UNL1       -0.0024
@<TRIPOS>BOND
     1    33    34    1
     2    34    27    1
     3    27    28   ar
     4    28    29   ar
     5    29    30   ar
     6    30    31   ar
     7    31    25    1
     8    25    26    2
     9    25    24    1
    10    24     1    1
    11     1     2   ar
    12     2     3    2
    13     2     4   ar
    14     4     5   ar
    15     5     6   ar
    16     6    22    1
    17    22    23    3
    18     6     7   ar
    19     7    13    1
    20    13    14    1
    21    14    15    1
    22    15    16    1
    23    16    17    1
    24    17    18    1
    25    17    19    1
    26     7     8   ar
    27     8    35    1
    28    35    36    1
    29    36    37   ar
    30    37    38   ar
    31    38    39   ar
    32    39    40   ar
    33    40    41   ar
    34     5     9   ar
    35     9    10    1
    36     9    11   ar
    37    11    12    2
    38    31    32   ar
    39    32    27   ar
    40    11     1   ar
    41     8     4   ar
    42    41    36   ar
    43    19    13    1
    44    18    20    1
    45    18    21    1
@<TRIPOS>MOLECULE
*****
 41 45 0 0 0
SMALL
GASTEIGER

@<TRIPOS>ATOM
      1 N         140.7876  144.7253  161.8786 N.ar    1  UNL1       -0.2399
      2 C         141.8310  143.6820  161.6090 C.ar    1  UNL1        0.2819
      3 O         142.3683  142.8499  162.7355 O.2     1  UNL1       -0.2652
      4 C         142.3372  143.4708  160.2129 C.ar    1  UNL1        0.1349
      5 C         141.8000  144.3028  159.0864 C.ar    1  UNL1        0.0966
      6 C         142.4848  143.8711  157.8236 C.ar    1  UNL1        0.1156
      7 C         143.4454  142.7722  158.1697 C.ar    1  UNL1        0.1240
      8 N         143.3541  142.5248  159.6464 N.ar    1  UNL1       -0.3063
      9 N         140.7565  145.3461  159.3560 N.ar    1  UNL1       -0.2770
     10 C         140.2192  146.1783  158.2295 C.3     1  UNL1        0.1351
     11 C         140.2503  145.5573  160.7522 C.ar    1  UNL1        0.3343
     12 O         139.2068  146.6007  161.0218 O.2     1  UNL1       -0.2462
     13 N         144.3401  142.0479  157.2080 N.pl3   1  UNL1       -0.2926
     14 C         143.7784  140.9731  156.3252 C.3     1  UNL1        0.0922
     15 C         144.6732  140.2488  155.3635 C.3     1  UNL1        0.0229
     16 C         146.1296  140.5993  155.2846 C.3     1  UNL1        0.0190
     17 C         146.6912  141.6741  156.1674 C.3     1  UNL1        0.0709
     18 N         148.1475  142.0246  156.0886 N.3     1  UNL1       -0.3208
     19 C         145.7964  142.3983  157.1291 C.3     1  UNL1        0.1075
     20 H         148.3543  142.7700  156.7535 H       1  UNL1        0.1189
     21 H         148.3708  142.3395  155.1445 H       1  UNL1        0.1189
     22 C         142.2503  144.4386  156.4551 C.1     1  UNL1        0.1047
     23 N         142.0158  145.0062  155.0865 N.1     1  UNL1       -0.1907
     24 C         140.2814  144.9365  163.2748 C.3     1  UNL1        0.1826
     25 C         139.1368  144.1152  163.7898 C.2     1  UNL1        0.1961
     26 O         137.7434  144.3815  163.3024 O.2     1  UNL1       -0.2893
     27 C         138.9065  140.6331  165.6798 C.ar    1  UNL1        0.1388
     28 C         139.8830  140.8519  166.7971 C.ar    1  UNL1        0.0369
     29 C         140.6108  142.1584  166.9120 C.ar    1  UNL1        0.0032
     30 C         140.3621  143.2462  165.9096 C.ar    1  UNL1        0.0031
     31 C         139.3855  143.0274  164.7922 C.ar    1  UNL1        0.0397
     32 C         138.6577  141.7208  164.6773 C.ar    1  UNL1        0.0398
     33 C         137.7478  138.5967  166.8025 C.3     1  UNL1        0.2525
     34 O         138.1787  139.3265  165.5649 O.3     1  UNL1       -0.4714
     35 C         144.1416  141.5096  160.4205 C.3     1  UNL1        0.1341
     36 C         143.4786  140.2521  160.8990 C.ar    1  UNL1        0.0004
     37 C         143.9650  139.5756  162.1464 C.ar    1  UNL1       -0.0024
     38 C         143.3020  138.3181  162.6249 C.ar    1  UNL1       -0.0003
     39 C         142.1524  137.7370  161.8561 C.ar    1  UNL1       -0.0000
     40 C         141.6660  138.4134  160.6088 C.ar    1  UNL1       -0.0003
     41 C         142.3290  139.6710  160.1302 C.ar    1  UNL1       -0.0024
@<TRIPOS>BOND
     1    33    34    1
     2    34    27    1
     3    27    28   ar
     4    28    29   ar
     5    29    30   ar
     6    30    31   ar
     7    31    25    1
     8    25    26    2
     9    25    24    1
    10    24     1    1
    11     1     2   ar
    12     2     3    2
    13     2     4   ar
    14     4     5   ar
    15     5     6   ar
    16     6    22    1
    17    22    23    3
    18     6     7   ar
    19     7    13    1
    20    13    14    1
    21    14    15    1
    22    15    16    1
    23    16    17    1
    24    17    18    1
    25    17    19    1
    26     7     8   ar
    27     8    35    1
    28    35    36    1
    29    36    37   ar
    30    37    38   ar
    31    38    39   ar
    32    39    40   ar
    33    40    41   ar
    34     5     9   ar
    35     9    10    1
    36     9    11   ar
    37    11    12    2
    38    31    32   ar
    39    32    27   ar
    40    11     1   ar
    41     8     4   ar
    42    41    36   ar
    43    19    13    1
    44    18    20    1
    45    18    21    1
@<TRIPOS>MOLECULE
*****
 41 45 0 0 0
SMALL
GASTEIGER

@<TRIPOS>ATOM
      1 N         143.0899  138.9426  156.9582 N.ar    1  UNL1       -0.2399
      2 C         143.0936  139.1560  158.4429 C.ar    1  UNL1        0.2819
      3 O         143.2584  137.9870  159.3682 O.2     1  UNL1       -0.2652
      4 C         142.9323  140.5384  159.0023 C.ar    1  UNL1        0.1349
      5 C         142.7674  141.7074  158.0769 C.ar    1  UNL1        0.0966
      6 C         142.6299  142.9449  158.9133 C.ar    1  UNL1        0.1156
      7 C         142.7098  142.5408  160.3556 C.ar    1  UNL1        0.1240
      8 N         142.8967  141.0535  160.4106 N.ar    1  UNL1       -0.3063
      9 N         142.7638  141.4940  156.5922 N.ar    1  UNL1       -0.2770
     10 C         142.5989  142.6630  155.6667 C.3     1  UNL1        0.1351
     11 C         142.9251  140.1115  156.0329 C.ar    1  UNL1        0.3343
     12 O         142.9214  139.8980  154.5480 O.2     1  UNL1       -0.2462
     13 N         142.6188  143.4621  161.5358 N.pl3   1  UNL1       -0.2926
     14 C         143.8657  143.8887  162.2522 C.3     1  UNL1        0.0922
     15 C         143.7746  144.8100  163.4324 C.3     1  UNL1        0.0229
     16 C         142.4367  145.3049  163.8962 C.3     1  UNL1        0.0190
     17 C         141.1898  144.8784  163.1797 C.3     1  UNL1        0.0709
     18 N         139.8518  145.3732  163.6434 N.3     1  UNL1       -0.3208
     19 C         141.2809  143.9570  161.9995 C.3     1  UNL1        0.1075
     20 H         139.1208  144.9864  163.0465 H       1  UNL1        0.1189
     21 H         139.8295  146.3916  163.5919 H       1  UNL1        0.1189
     22 C         142.4450  144.3414  158.3979 C.1     1  UNL1        0.1047
     23 N         142.2600  145.7379  157.8825 N.1     1  UNL1       -0.1907
     24 C         143.2512  137.5601  156.3988 C.3     1  UNL1        0.1826
     25 C         142.0747  136.6311  156.3445 C.2     1  UNL1        0.1961
     26 O         140.6812  137.1859  156.3243 O.2     1  UNL1       -0.2893
     27 C         143.5889  133.0440  157.1126 C.ar    1  UNL1        0.1388
     28 C         142.7257  132.1797  156.2422 C.ar    1  UNL1        0.0369
     29 C         141.6455  132.7991  155.4059 C.ar    1  UNL1        0.0032
     30 C         141.4284  134.2829  155.4399 C.ar    1  UNL1        0.0031
     31 C         142.2917  135.1473  156.3104 C.ar    1  UNL1        0.0397
     32 C         143.3719  134.5279  157.1467 C.ar    1  UNL1        0.0398
     33 C         144.8483  130.9354  157.9596 C.3     1  UNL1        0.2525
     34 O         144.6691  132.4246  157.9489 O.3     1  UNL1       -0.4714
     35 C         143.0254  140.2265  161.6554 C.3     1  UNL1        0.1341
     36 C         141.8795  139.3718  162.1097 C.ar    1  UNL1        0.0004
     37 C         142.1443  138.0906  162.8436 C.ar    1  UNL1       -0.0024
     38 C         140.9985  137.2359  163.2980 C.ar    1  UNL1       -0.0003
     39 C         139.5877  137.6623  163.0184 C.ar    1  UNL1       -0.0000
     40 C         139.3229  138.9434  162.2845 C.ar    1  UNL1       -0.0003
     41 C         140.4688  139.7981  161.8301 C.ar    1  UNL1       -0.0024
@<TRIPOS>BOND
     1    33    34    1
     2    34    27    1
     3    27    28   ar
     4    28    29   ar
     5    29    30   ar
     6    30    31   ar
     7    31    25    1
     8    25    26    2
     9    25    24    1
    10    24     1    1
    11     1     2   ar
    12     2     3    2
    13     2     4   ar
    14     4     5   ar
    15     5     6   ar
    16     6    22    1
    17    22    23    3
    18     6     7   ar
    19     7    13    1
    20    13    14    1
    21    14    15    1
    22    15    16    1
    23    16    17    1
    24    17    18    1
    25    17    19    1
    26     7     8   ar
    27     8    35    1
    28    35    36    1
    29    36    37   ar
    30    37    38   ar
    31    38    39   ar
    32    39    40   ar
    33    40    41   ar
    34     5     9   ar
    35     9    10    1
    36     9    11   ar
    37    11    12    2
    38    31    32   ar
    39    32    27   ar
    40    11     1   ar
    41     8     4   ar
    42    41    36   ar
    43    19    13    1
    44    18    20    1
    45    18    21    1
@<TRIPOS>MOLECULE
*****
 41 45 0 0 0
SMALL
GASTEIGER

@<TRIPOS>ATOM
      1 N         139.1830  139.3067  161.5407 N.ar    1  UNL1       -0.2399
      2 C         140.6770  139.3353  161.4105 C.ar    1  UNL1        0.2819
      3 O         141.5383  138.8917  162.5557 O.2     1  UNL1       -0.2652
      4 C         141.3098  139.8076  160.1351 C.ar    1  UNL1        0.1349
      5 C         140.4485  140.2512  158.9900 C.ar    1  UNL1        0.0966
      6 C         141.3501  140.6633  157.8643 C.ar    1  UNL1        0.1156
      7 C         142.7687  140.4744  158.3137 C.ar    1  UNL1        0.1240
      8 N         142.7438  139.9455  159.7172 N.ar    1  UNL1       -0.3063
      9 N         138.9544  140.2226  159.1202 N.ar    1  UNL1       -0.2770
     10 C         138.0930  140.6662  157.9751 C.3     1  UNL1        0.1351
     11 C         138.3217  139.7503  160.3957 C.ar    1  UNL1        0.3343
     12 O         136.8276  139.7217  160.5259 O.2     1  UNL1       -0.2462
     13 N         143.9966  140.7636  157.5022 N.pl3   1  UNL1       -0.2926
     14 C         144.3349  139.9031  156.3211 C.3     1  UNL1        0.0922
     15 C         145.5628  140.1923  155.5096 C.3     1  UNL1        0.0229
     16 C         146.4525  141.3421  155.8792 C.3     1  UNL1        0.0190
     17 C         146.1142  142.2026  157.0603 C.3     1  UNL1        0.0709
     18 N         147.0038  143.3523  157.4300 N.3     1  UNL1       -0.3208
     19 C         144.8862  141.9133  157.8718 C.3     1  UNL1        0.1075
     20 H         146.6257  143.8244  158.2513 H       1  UNL1        0.1189
     21 H         147.0509  144.0098  156.6515 H       1  UNL1        0.1189
     22 C         140.9104  141.1746  156.5244 C.1     1  UNL1        0.1047
     23 N         140.4707  141.6859  155.1845 N.1     1  UNL1       -0.1907
     24 C         138.5503  138.8344  162.8162 C.3     1  UNL1        0.1826
     25 C         138.4552  139.7591  163.9934 C.2     1  UNL1        0.1961
     26 O         138.1517  139.2101  165.3560 O.2     1  UNL1       -0.2893
     27 C         140.2149  143.3150  163.8996 C.ar    1  UNL1        0.1388
     28 C         139.0804  144.1806  163.4376 C.ar    1  UNL1        0.0369
     29 C         137.7375  143.5725  163.1608 C.ar    1  UNL1        0.0032
     30 C         137.5290  142.0987  163.3461 C.ar    1  UNL1        0.0031
     31 C         138.6636  141.2330  163.8081 C.ar    1  UNL1        0.0397
     32 C         140.0065  141.8412  164.0849 C.ar    1  UNL1        0.0398
     33 C         141.8712  145.3050  163.6841 C.3     1  UNL1        0.2525
     34 O         141.5579  143.9232  164.1764 O.3     1  UNL1       -0.4714
     35 C         143.9424  139.6130  160.5555 C.3     1  UNL1        0.1341
     36 C         144.3281  140.5036  161.6992 C.ar    1  UNL1        0.0004
     37 C         144.3087  141.9938  161.5290 C.ar    1  UNL1       -0.0024
     38 C         144.6945  142.8843  162.6727 C.ar    1  UNL1       -0.0003
     39 C         145.0995  142.2847  163.9867 C.ar    1  UNL1       -0.0000
     40 C         145.1189  140.7946  164.1569 C.ar    1  UNL1       -0.0003
     41 C         144.7332  139.9039  163.0132 C.ar    1  UNL1       -0.0024
@<TRIPOS>BOND
     1    33    34    1
     2    34    27    1
     3    27    28   ar
     4    28    29   ar
     5    29    30   ar
     6    30    31   ar
     7    31    25    1
     8    25    26    2
     9    25    24    1
    10    24     1    1
    11     1     2   ar
    12     2     3    2
    13     2     4   ar
    14     4     5   ar
    15     5     6   ar
    16     6    22    1
    17    22    23    3
    18     6     7   ar
    19     7    13    1
    20    13    14    1
    21    14    15    1
    22    15    16    1
    23    16    17    1
    24    17    18    1
    25    17    19    1
    26     7     8   ar
    27     8    35    1
    28    35    36    1
    29    36    37   ar
    30    37    38   ar
    31    38    39   ar
    32    39    40   ar
    33    40    41   ar
    34     5     9   ar
    35     9    10    1
    36     9    11   ar
    37    11    12    2
    38    31    32   ar
    39    32    27   ar
    40    11     1   ar
    41     8     4   ar
    42    41    36   ar
    43    19    13    1
    44    18    20    1
    45    18    21    1
@<TRIPOS>MOLECULE
*****
 41 45 0 0 0
SMALL
GASTEIGER

@<TRIPOS>ATOM
      1 N         140.7047  143.0225  160.6099 N.ar    1  UNL1       -0.2399
      2 C         139.9336  142.4979  161.7847 C.ar    1  UNL1        0.2819
      3 O         138.5364  141.9854  161.5964 O.2     1  UNL1       -0.2652
      4 C         140.5595  142.4859  163.1477 C.ar    1  UNL1        0.1349
      5 C         141.9567  142.9984  163.3360 C.ar    1  UNL1        0.0966
      6 C         142.3087  142.8621  164.7877 C.ar    1  UNL1        0.1156
      7 C         141.1292  142.2654  165.4966 C.ar    1  UNL1        0.1240
      8 N         140.0481  142.0328  164.4831 N.ar    1  UNL1       -0.3063
      9 N         142.7278  143.5229  162.1612 N.ar    1  UNL1       -0.2770
     10 C         144.1249  144.0355  162.3494 C.3     1  UNL1        0.1351
     11 C         142.1017  143.5350  160.7981 C.ar    1  UNL1        0.3343
     12 O         142.8728  144.0596  159.6232 O.2     1  UNL1       -0.2462
     13 N         141.0454  141.9555  166.9619 N.pl3   1  UNL1       -0.2926
     14 C         141.4680  140.6086  167.4691 C.3     1  UNL1        0.0922
     15 C         141.3842  140.2989  168.9344 C.3     1  UNL1        0.0229
     16 C         140.8778  141.3360  169.8925 C.3     1  UNL1        0.0190
     17 C         140.4552  142.6829  169.3853 C.3     1  UNL1        0.0709
     18 N         139.9488  143.7200  170.3434 N.3     1  UNL1       -0.3208
     19 C         140.5390  142.9926  167.9200 C.3     1  UNL1        0.1075
     20 H         139.7086  144.5683  169.8304 H       1  UNL1        0.1189
     21 H         140.6731  143.9313  171.0298 H       1  UNL1        0.1189
     22 C         143.6116  143.2538  165.4195 C.1     1  UNL1        0.1047
     23 N         144.9144  143.6455  166.0513 N.1     1  UNL1       -0.1907
     24 C         140.0786  143.0345  159.2468 C.3     1  UNL1        0.1826
     25 C         140.0217  141.7735  158.4365 C.2     1  UNL1        0.1961
     26 O         140.9771  140.6534  158.7240 O.2     1  UNL1       -0.2893
     27 C         136.6386  140.9306  156.5407 C.ar    1  UNL1        0.1388
     28 C         136.9847  141.3505  155.1429 C.ar    1  UNL1        0.0369
     29 C         138.3431  141.9114  154.8430 C.ar    1  UNL1        0.0032
     30 C         139.3555  142.0525  155.9407 C.ar    1  UNL1        0.0031
     31 C         139.0094  141.6325  157.3386 C.ar    1  UNL1        0.0397
     32 C         137.6509  141.0716  157.6386 C.ar    1  UNL1        0.0398
     33 C         134.4123  139.8689  155.7244 C.3     1  UNL1        0.2525
     34 O         135.2801  140.3696  156.8406 O.3     1  UNL1       -0.4714
     35 C         138.6936  141.4497  164.7569 C.3     1  UNL1        0.1341
     36 C         138.5595  139.9982  165.1109 C.ar    1  UNL1        0.0004
     37 C         139.0578  138.9464  164.1646 C.ar    1  UNL1       -0.0024
     38 C         138.9237  137.4949  164.5186 C.ar    1  UNL1       -0.0003
     39 C         138.2914  137.0953  165.8189 C.ar    1  UNL1       -0.0000
     40 C         137.7931  138.1471  166.7650 C.ar    1  UNL1       -0.0003
     41 C         137.9272  139.5986  166.4111 C.ar    1  UNL1       -0.0024
@<TRIPOS>BOND
     1    33    34    1
     2    34    27    1
     3    27    28   ar
     4    28    29   ar
     5    29    30   ar
     6    30    31   ar
     7    31    25    1
     8    25    26    2
     9    25    24    1
    10    24     1    1
    11     1     2   ar
    12     2     3    2
    13     2     4   ar
    14     4     5   ar
    15     5     6   ar
    16     6    22    1
    17    22    23    3
    18     6     7   ar
    19     7    13    1
    20    13    14    1
    21    14    15    1
    22    15    16    1
    23    16    17    1
    24    17    18    1
    25    17    19    1
    26     7     8   ar
    27     8    35    1
    28    35    36    1
    29    36    37   ar
    30    37    38   ar
    31    38    39   ar
    32    39    40   ar
    33    40    41   ar
    34     5     9   ar
    35     9    10    1
    36     9    11   ar
    37    11    12    2
    38    31    32   ar
    39    32    27   ar
    40    11     1   ar
    41     8     4   ar
    42    41    36   ar
    43    19    13    1
    44    18    20    1
    45    18    21    1
@<TRIPOS>MOLECULE
*****
 41 45 0 0 0
SMALL
GASTEIGER

@<TRIPOS>ATOM
      1 N         142.6501  142.6583  162.5140 N.ar    1  UNL1       -0.2399
      2 C         141.7524  141.5302  162.0999 C.ar    1  UNL1        0.2819
      3 O         140.5945  141.1356  162.9681 O.2     1  UNL1       -0.2652
      4 C         142.0126  140.7966  160.8177 C.ar    1  UNL1        0.1349
      5 C         143.1704  141.1911  159.9495 C.ar    1  UNL1        0.0966
      6 C         143.1782  140.2908  158.7498 C.ar    1  UNL1        0.1156
      7 C         142.0251  139.3398  158.8765 C.ar    1  UNL1        0.1240
      8 N         141.3047  139.6524  160.1545 N.ar    1  UNL1       -0.3063
      9 N         144.0681  142.3192  160.3636 N.ar    1  UNL1       -0.2770
     10 C         145.2260  142.7139  159.4954 C.3     1  UNL1        0.1351
     11 C         143.8079  143.0528  161.6459 C.ar    1  UNL1        0.3343
     12 O         144.7056  144.1810  162.0600 O.2     1  UNL1       -0.2462
     13 N         141.6570  138.2650  157.8971 N.pl3   1  UNL1       -0.2926
     14 C         142.6570  137.2080  157.5326 C.3     1  UNL1        0.0922
     15 C         142.2888  136.1331  156.5532 C.3     1  UNL1        0.0229
     16 C         140.9208  136.1152  155.9383 C.3     1  UNL1        0.0190
     17 C         139.9208  137.1722  156.3028 C.3     1  UNL1        0.0709
     18 N         138.5527  137.1544  155.6880 N.3     1  UNL1       -0.3208
     19 C         140.2890  138.2471  157.2823 C.3     1  UNL1        0.1075
     20 H         138.0088  137.9394  156.0461 H       1  UNL1        0.1189
     21 H         138.0846  136.2798  155.9256 H       1  UNL1        0.1189
     22 C         144.1656  140.3339  157.6215 C.1     1  UNL1        0.1047
     23 N         145.1531  140.3770  156.4931 N.1     1  UNL1       -0.1907
     24 C         142.3899  143.3919  163.7963 C.3     1  UNL1        0.1826
     25 C         143.2158  143.0929  165.0122 C.2     1  UNL1        0.1961
     26 O         144.3756  143.9755  165.3668 O.2     1  UNL1       -0.2893
     27 C         141.7654  140.9209  168.0004 C.ar    1  UNL1        0.1388
     28 C         142.2139  139.5478  167.5965 C.ar    1  UNL1        0.0369
     29 C         142.9964  139.3563  166.3312 C.ar    1  UNL1        0.0032
     30 C         143.3304  140.5379  165.4697 C.ar    1  UNL1        0.0031
     31 C         142.8818  141.9112  165.8736 C.ar    1  UNL1        0.0397
     32 C         142.0993  142.1026  167.1390 C.ar    1  UNL1        0.0398
     33 C         140.9000  140.0027  170.2715 C.3     1  UNL1        0.2525
     34 O         140.9829  141.1124  169.2657 O.3     1  UNL1       -0.4714
     35 C         140.0898  138.9450  160.6775 C.3     1  UNL1        0.1341
     36 C         140.1135  138.3229  162.0422 C.ar    1  UNL1        0.0004
     37 C         138.8669  138.2959  162.8760 C.ar    1  UNL1       -0.0024
     38 C         138.8906  137.6738  164.2407 C.ar    1  UNL1       -0.0003
     39 C         140.1611  137.0787  164.7717 C.ar    1  UNL1       -0.0000
     40 C         141.4077  137.1057  163.9380 C.ar    1  UNL1       -0.0003
     41 C         141.3840  137.7278  162.5732 C.ar    1  UNL1       -0.0024
@<TRIPOS>BOND
     1    33    34    1
     2    34    27    1
     3    27    28   ar
     4    28    29   ar
     5    29    30   ar
     6    30    31   ar
     7    31    25    1
     8    25    26    2
     9    25    24    1
    10    24     1    1
    11     1     2   ar
    12     2     3    2
    13     2     4   ar
    14     4     5   ar
    15     5     6   ar
    16     6    22    1
    17    22    23    3
    18     6     7   ar
    19     7    13    1
    20    13    14    1
    21    14    15    1
    22    15    16    1
    23    16    17    1
    24    17    18    1
    25    17    19    1
    26     7     8   ar
    27     8    35    1
    28    35    36    1
    29    36    37   ar
    30    37    38   ar
    31    38    39   ar
    32    39    40   ar
    33    40    41   ar
    34     5     9   ar
    35     9    10    1
    36     9    11   ar
    37    11    12    2
    38    31    32   ar
    39    32    27   ar
    40    11     1   ar
    41     8     4   ar
    42    41    36   ar
    43    19    13    1
    44    18    20    1
    45    18    21    1
