@<TRIPOS>MOLECULE
*****
 24 26 0 0 0
SMALL
GASTEIGER

@<TRIPOS>ATOM
      1 C         140.4666  141.1139  167.4722 C.3     1  UNL1        0.0847
      2 N         141.0318  140.9629  168.8534 N.3     1  UNL1       -0.2676
      3 C         142.1481  139.9931  169.1051 C.3     1  UNL1        0.0896
      4 C         142.7133  139.8421  170.4863 C.3     1  UNL1        0.0862
      5 N         142.1621  140.6608  171.6158 N.3     1  UNL1       -0.2951
      6 C         141.0458  141.6305  171.3642 C.3     1  UNL1        0.0862
      7 C         140.4806  141.7816  169.9830 C.3     1  UNL1        0.0896
      8 H         142.9403  141.1997  171.9959 H       1  UNL1        0.1233
      9 C         139.9195  139.9180  166.7508 C.ar    1  UNL1       -0.0074
     10 C         140.7207  139.2674  165.6623 C.ar    1  UNL1       -0.0030
     11 C         140.1735  138.0714  164.9409 C.ar    1  UNL1       -0.0003
     12 C         138.8252  137.5262  165.3080 C.ar    1  UNL1       -0.0000
     13 C         138.0240  138.1768  166.3964 C.ar    1  UNL1       -0.0003
     14 C         138.5711  139.3727  167.1178 C.ar    1  UNL1       -0.0030
     15 C         140.4486  142.4609  166.8124 C.3     1  UNL1        0.0522
     16 C         141.2465  143.6147  164.6255 C.ar    1  UNL1        0.1369
     17 C         142.3544  144.0085  163.6942 C.ar    1  UNL1        0.0367
     18 C         143.7724  143.6424  164.0184 C.ar    1  UNL1        0.0054
     19 C         144.0825  142.8824  165.2739 C.ar    1  UNL1        0.0295
     20 C         142.9746  142.4886  166.2052 C.ar    1  UNL1        0.1391
     21 F         143.3220  142.0988  166.8076 F       1  UNL1       -0.2044
     22 C         141.5566  142.8547  165.8810 C.ar    1  UNL1        0.0409
     23 C         139.5421  145.0294  163.2677 C.3     1  UNL1        0.2525
     24 O         139.8284  143.9808  164.3014 O.3     1  UNL1       -0.4717
@<TRIPOS>BOND
     1    23    24    1
     2    24    16    1
     3    16    17   ar
     4    17    18   ar
     5    18    19   ar
     6    19    20   ar
     7    20    21    1
     8    20    22   ar
     9    22    15    1
    10    15     1    1
    11     1     9    1
    12     9    10   ar
    13    10    11   ar
    14    11    12   ar
    15    12    13   ar
    16    13    14   ar
    17     1     2    1
    18     2     3    1
    19     3     4    1
    20     4     5    1
    21     5     6    1
    22     6     7    1
    23    22    16   ar
    24    14     9   ar
    25     7     2    1
    26     5     8    1
@<TRIPOS>MOLECULE
*****
 24 26 0 0 0
SMALL
GASTEIGER

@<TRIPOS>ATOM
      1 C         141.3326  140.9302  167.3067 C.3     1  UNL1        0.0847
      2 N         141.0708  141.3335  168.7276 N.3     1  UNL1       -0.2676
      3 C         140.3575  142.6196  169.0228 C.3     1  UNL1        0.0896
      4 C         140.0957  143.0230  170.4436 C.3     1  UNL1        0.0862
      5 N         140.5472  142.1403  171.5692 N.3     1  UNL1       -0.2951
      6 C         141.2605  140.8542  171.2739 C.3     1  UNL1        0.0862
      7 C         141.5223  140.4508  169.8532 C.3     1  UNL1        0.0896
      8 H         139.7143  141.8986  172.1060 H       1  UNL1        0.1233
      9 C         140.4739  139.8889  166.6523 C.ar    1  UNL1       -0.0074
     10 C         139.0513  139.7057  167.0914 C.ar    1  UNL1       -0.0030
     11 C         138.1926  138.6644  166.4369 C.ar    1  UNL1       -0.0003
     12 C         138.7564  137.8063  165.3435 C.ar    1  UNL1       -0.0000
     13 C         140.1790  137.9894  164.9044 C.ar    1  UNL1       -0.0003
     14 C         141.0377  139.0307  165.5588 C.ar    1  UNL1       -0.0030
     15 C         142.4532  141.5681  166.5403 C.3     1  UNL1        0.0522
     16 C         143.2917  143.3512  164.8469 C.ar    1  UNL1        0.1369
     17 C         143.0085  144.4906  163.9134 C.ar    1  UNL1        0.0367
     18 C         141.6035  144.9866  163.7399 C.ar    1  UNL1        0.0054
     19 C         140.4818  144.3430  164.4999 C.ar    1  UNL1        0.0295
     20 C         140.7650  143.2036  165.4333 C.ar    1  UNL1        0.1391
     21 F         140.0612  142.9932  165.7430 F       1  UNL1       -0.2044
     22 C         142.1699  142.7076  165.6068 C.ar    1  UNL1        0.0409
     23 C         145.3209  141.9873  163.9682 C.3     1  UNL1        0.2525
     24 O         144.6967  142.8552  165.0204 O.3     1  UNL1       -0.4717
@<TRIPOS>BOND
     1    23    24    1
     2    24    16    1
     3    16    17   ar
     4    17    18   ar
     5    18    19   ar
     6    19    20   ar
     7    20    21    1
     8    20    22   ar
     9    22    15    1
    10    15     1    1
    11     1     9    1
    12     9    10   ar
    13    10    11   ar
    14    11    12   ar
    15    12    13   ar
    16    13    14   ar
    17     1     2    1
    18     2     3    1
    19     3     4    1
    20     4     5    1
    21     5     6    1
    22     6     7    1
    23    22    16   ar
    24    14     9   ar
    25     7     2    1
    26     5     8    1
@<TRIPOS>MOLECULE
*****
 24 26 0 0 0
SMALL
GASTEIGER

@<TRIPOS>ATOM
      1 C         140.3916  140.1899  167.3267 C.3     1  UNL1        0.0847
      2 N         140.4575  140.8969  168.6480 N.3     1  UNL1       -0.2676
      3 C         140.6835  140.1137  169.9072 C.3     1  UNL1        0.0896
      4 C         140.7493  140.8206  171.2285 C.3     1  UNL1        0.0862
      5 N         140.5891  142.3107  171.2906 N.3     1  UNL1       -0.2951
      6 C         140.3632  143.0939  170.0315 C.3     1  UNL1        0.0862
      7 C         140.2973  142.3870  168.7102 C.3     1  UNL1        0.0896
      8 H         141.4378  142.6805  171.7191 H       1  UNL1        0.1233
      9 C         141.6113  140.1101  166.4572 C.ar    1  UNL1       -0.0074
     10 C         141.9850  141.2688  165.5811 C.ar    1  UNL1       -0.0030
     11 C         143.2047  141.1889  164.7116 C.ar    1  UNL1       -0.0003
     12 C         144.0506  139.9503  164.7182 C.ar    1  UNL1       -0.0000
     13 C         143.6770  138.7915  165.5943 C.ar    1  UNL1       -0.0003
     14 C         142.4573  138.8714  166.4638 C.ar    1  UNL1       -0.0030
     15 C         139.1061  139.5628  166.8749 C.3     1  UNL1        0.0522
     16 C         138.3778  140.3301  164.5019 C.ar    1  UNL1        0.1369
     17 C         138.1606  140.0284  163.0487 C.ar    1  UNL1        0.0367
     18 C         138.4546  138.6576  162.5153 C.ar    1  UNL1        0.0054
     19 C         138.9657  137.5886  163.4350 C.ar    1  UNL1        0.0295
     20 C         139.1828  137.8903  164.8882 C.ar    1  UNL1        0.1391
     21 F         139.4521  137.2148  165.2150 F       1  UNL1       -0.2044
     22 C         138.8889  139.2610  165.4216 C.ar    1  UNL1        0.0409
     23 C         138.8694  142.8809  164.5450 C.3     1  UNL1        0.2525
     24 O         138.0839  141.7009  165.0354 O.3     1  UNL1       -0.4717
@<TRIPOS>BOND
     1    23    24    1
     2    24    16    1
     3    16    17   ar
     4    17    18   ar
     5    18    19   ar
     6    19    20   ar
     7    20    21    1
     8    20    22   ar
     9    22    15    1
    10    15     1    1
    11     1     9    1
    12     9    10   ar
    13    10    11   ar
    14    11    12   ar
    15    12    13   ar
    16    13    14   ar
    17     1     2    1
    18     2     3    1
    19     3     4    1
    20     4     5    1
    21     5     6    1
    22     6     7    1
    23    22    16   ar
    24    14     9   ar
    25     7     2    1
    26     5     8    1
@<TRIPOS>MOLECULE
*****
 24 26 0 0 0
SMALL
GASTEIGER

@<TRIPOS>ATOM
      1 C         141.3943  140.8081  167.2773 C.3     1  UNL1        0.0847
      2 N         141.6571  141.2545  168.6851 N.3     1  UNL1       -0.2676
      3 C         140.9910  140.5526  169.8312 C.3     1  UNL1        0.0896
      4 C         141.2537  140.9989  171.2389 C.3     1  UNL1        0.0862
      5 N         142.1827  142.1472  171.5005 N.3     1  UNL1       -0.2951
      6 C         142.8489  142.8491  170.3544 C.3     1  UNL1        0.0862
      7 C         142.5861  142.4027  168.9467 C.3     1  UNL1        0.0896
      8 H         142.9269  141.7929  172.1014 H       1  UNL1        0.1233
      9 C         142.5415  140.4916  166.3643 C.ar    1  UNL1       -0.0074
     10 C         143.0860  139.0954  166.3002 C.ar    1  UNL1       -0.0030
     11 C         144.2333  138.7790  165.3871 C.ar    1  UNL1       -0.0003
     12 C         144.8361  139.8588  164.5382 C.ar    1  UNL1       -0.0000
     13 C         144.2916  141.2551  164.6023 C.ar    1  UNL1       -0.0003
     14 C         143.1444  141.5715  165.5154 C.ar    1  UNL1       -0.0030
     15 C         139.9842  140.6781  166.7827 C.3     1  UNL1        0.0522
     16 C         138.3955  141.3932  164.8553 C.ar    1  UNL1        0.1369
     17 C         137.8016  142.4664  163.9919 C.ar    1  UNL1        0.0367
     18 C         138.2026  143.8978  164.1925 C.ar    1  UNL1        0.0054
     19 C         139.1975  144.2560  165.2564 C.ar    1  UNL1        0.0295
     20 C         139.7913  143.1828  166.1198 C.ar    1  UNL1        0.1391
     21 F         140.2900  143.5534  166.6192 F       1  UNL1       -0.2044
     22 C         139.3903  141.7514  165.9193 C.ar    1  UNL1        0.0409
     23 C         138.6010  139.1620  163.5401 C.3     1  UNL1        0.2525
     24 O         137.9945  139.9617  164.6548 O.3     1  UNL1       -0.4717
@<TRIPOS>BOND
     1    23    24    1
     2    24    16    1
     3    16    17   ar
     4    17    18   ar
     5    18    19   ar
     6    19    20   ar
     7    20    21    1
     8    20    22   ar
     9    22    15    1
    10    15     1    1
    11     1     9    1
    12     9    10   ar
    13    10    11   ar
    14    11    12   ar
    15    12    13   ar
    16    13    14   ar
    17     1     2    1
    18     2     3    1
    19     3     4    1
    20     4     5    1
    21     5     6    1
    22     6     7    1
    23    22    16   ar
    24    14     9   ar
    25     7     2    1
    26     5     8    1
@<TRIPOS>MOLECULE
*****
 24 26 0 0 0
SMALL
GASTEIGER

@<TRIPOS>ATOM
      1 C         141.5241  141.0131  166.5005 C.3     1  UNL1        0.0847
      2 N         142.1956  140.9758  167.8413 N.3     1  UNL1       -0.2676
      3 C         142.0939  139.7482  168.6972 C.3     1  UNL1        0.0896
      4 C         142.7654  139.7109  170.0379 C.3     1  UNL1        0.0862
      5 N         143.5385  140.9012  170.5228 N.3     1  UNL1       -0.2951
      6 C         143.6402  142.1289  169.6670 C.3     1  UNL1        0.0862
      7 C         142.9688  142.1662  168.3262 C.3     1  UNL1        0.0896
      8 H         144.4921  140.5827  170.6953 H       1  UNL1        0.1233
      9 C         140.5810  139.9164  166.1033 C.ar    1  UNL1       -0.0074
     10 C         141.0629  138.7893  165.2387 C.ar    1  UNL1       -0.0030
     11 C         140.1197  137.6926  164.8415 C.ar    1  UNL1       -0.0003
     12 C         138.6948  137.7230  165.3089 C.ar    1  UNL1       -0.0000
     13 C         138.2129  138.8500  166.1734 C.ar    1  UNL1       -0.0003
     14 C         139.1559  139.9467  166.5706 C.ar    1  UNL1       -0.0030
     15 C         141.7957  142.1471  165.5569 C.3     1  UNL1        0.0522
     16 C         140.4454  142.8027  163.4363 C.ar    1  UNL1        0.1369
     17 C         139.3038  143.5379  162.7990 C.ar    1  UNL1        0.0367
     18 C         138.3708  144.3526  163.6449 C.ar    1  UNL1        0.0054
     19 C         138.5794  144.4322  165.1282 C.ar    1  UNL1        0.0295
     20 C         139.7210  143.6970  165.7655 C.ar    1  UNL1        0.1391
     21 F         139.6745  143.8531  166.5459 F       1  UNL1       -0.2044
     22 C         140.6540  142.8823  164.9196 C.ar    1  UNL1        0.0409
     23 C         140.9258  140.6734  162.0273 C.3     1  UNL1        0.2525
     24 O         141.3785  141.9880  162.5904 O.3     1  UNL1       -0.4717
@<TRIPOS>BOND
     1    23    24    1
     2    24    16    1
     3    16    17   ar
     4    17    18   ar
     5    18    19   ar
     6    19    20   ar
     7    20    21    1
     8    20    22   ar
     9    22    15    1
    10    15     1    1
    11     1     9    1
    12     9    10   ar
    13    10    11   ar
    14    11    12   ar
    15    12    13   ar
    16    13    14   ar
    17     1     2    1
    18     2     3    1
    19     3     4    1
    20     4     5    1
    21     5     6    1
    22     6     7    1
    23    22    16   ar
    24    14     9   ar
    25     7     2    1
    26     5     8    1
@<TRIPOS>MOLECULE
*****
 24 26 0 0 0
SMALL
GASTEIGER

@<TRIPOS>ATOM
      1 C         141.5083  141.8285  166.9924 C.3     1  UNL1        0.0847
      2 N         141.2908  141.0141  168.2331 N.3     1  UNL1       -0.2676
      3 C         140.0331  141.1861  169.0323 C.3     1  UNL1        0.0896
      4 C         139.8156  140.3718  170.2730 C.3     1  UNL1        0.0862
      5 N         140.8557  139.3853  170.7146 N.3     1  UNL1       -0.2951
      6 C         142.1134  139.2133  169.9154 C.3     1  UNL1        0.0862
      7 C         142.3310  140.0276  168.6747 C.3     1  UNL1        0.0896
      8 H         140.4009  138.4730  170.7479 H       1  UNL1        0.1233
      9 C         140.3538  142.1376  166.0861 C.ar    1  UNL1       -0.0074
     10 C         139.6103  141.0228  165.4118 C.ar    1  UNL1       -0.0030
     11 C         138.4557  141.3320  164.5054 C.ar    1  UNL1       -0.0003
     12 C         138.0445  142.7557  164.2735 C.ar    1  UNL1       -0.0000
     13 C         138.7880  143.8704  164.9479 C.ar    1  UNL1       -0.0003
     14 C         139.9425  143.5614  165.8541 C.ar    1  UNL1       -0.0030
     15 C         142.8805  142.3338  166.6579 C.3     1  UNL1        0.0522
     16 C         144.3043  142.7578  164.5265 C.ar    1  UNL1        0.1369
     17 C         145.0230  142.2334  163.3188 C.ar    1  UNL1        0.0367
     18 C         145.0365  140.7606  163.0349 C.ar    1  UNL1        0.0054
     19 C         144.3313  139.8122  163.9586 C.ar    1  UNL1        0.0295
     20 C         143.6127  140.3366  165.1663 C.ar    1  UNL1        0.1391
     21 F         143.3034  139.6992  165.5319 F       1  UNL1       -0.2044
     22 C         143.5992  141.8094  165.4502 C.ar    1  UNL1        0.0409
     23 C         143.4279  145.1444  163.9917 C.3     1  UNL1        0.2525
     24 O         144.2908  144.2306  164.8104 O.3     1  UNL1       -0.4717
@<TRIPOS>BOND
     1    23    24    1
     2    24    16    1
     3    16    17   ar
     4    17    18   ar
     5    18    19   ar
     6    19    20   ar
     7    20    21    1
     8    20    22   ar
     9    22    15    1
    10    15     1    1
    11     1     9    1
    12     9    10   ar
    13    10    11   ar
    14    11    12   ar
    15    12    13   ar
    16    13    14   ar
    17     1     2    1
    18     2     3    1
    19     3     4    1
    20     4     5    1
    21     5     6    1
    22     6     7    1
    23    22    16   ar
    24    14     9   ar
    25     7     2    1
    26     5     8    1
@<TRIPOS>MOLECULE
*****
 24 26 0 0 0
SMALL
GASTEIGER

@<TRIPOS>ATOM
      1 C         142.0551  142.6515  165.5393 C.3     1  UNL1        0.0847
      2 N         143.1140  142.6618  164.4768 N.3     1  UNL1       -0.2676
      3 C         144.3321  141.7990  164.6236 C.3     1  UNL1        0.0896
      4 C         145.3910  141.8093  163.5613 C.3     1  UNL1        0.0862
      5 N         145.2317  142.6825  162.3521 N.3     1  UNL1       -0.2951
      6 C         144.0135  143.5453  162.2053 C.3     1  UNL1        0.0862
      7 C         142.9546  143.5350  163.2676 C.3     1  UNL1        0.0896
      8 H         145.2562  142.0670  161.5391 H       1  UNL1        0.1233
      9 C         140.6143  142.8335  165.1640 C.ar    1  UNL1       -0.0074
     10 C         139.9534  144.1671  165.3501 C.ar    1  UNL1       -0.0030
     11 C         138.5125  144.3491  164.9748 C.ar    1  UNL1       -0.0003
     12 C         137.7326  143.1974  164.4133 C.ar    1  UNL1       -0.0000
     13 C         138.3934  141.8638  164.2272 C.ar    1  UNL1       -0.0003
     14 C         139.8342  141.6818  164.6025 C.ar    1  UNL1       -0.0030
     15 C         142.4371  142.4591  166.9770 C.3     1  UNL1        0.0522
     16 C         141.0377  140.4949  167.9433 C.ar    1  UNL1        0.1369
     17 C         140.0277  139.9791  168.9250 C.ar    1  UNL1        0.0367
     18 C         139.4071  140.9119  169.9224 C.ar    1  UNL1        0.0054
     19 C         139.7965  142.3604  169.9380 C.ar    1  UNL1        0.0295
     20 C         140.8065  142.8761  168.9562 C.ar    1  UNL1        0.1391
     21 F         140.8862  143.6540  169.1112 F       1  UNL1       -0.2044
     22 C         141.4271  141.9434  167.9589 C.ar    1  UNL1        0.0409
     23 C         142.9928  138.9392  167.2308 C.3     1  UNL1        0.2525
     24 O         141.6583  139.5621  166.9458 O.3     1  UNL1       -0.4717
@<TRIPOS>BOND
     1    23    24    1
     2    24    16    1
     3    16    17   ar
     4    17    18   ar
     5    18    19   ar
     6    19    20   ar
     7    20    21    1
     8    20    22   ar
     9    22    15    1
    10    15     1    1
    11     1     9    1
    12     9    10   ar
    13    10    11   ar
    14    11    12   ar
    15    12    13   ar
    16    13    14   ar
    17     1     2    1
    18     2     3    1
    19     3     4    1
    20     4     5    1
    21     5     6    1
    22     6     7    1
    23    22    16   ar
    24    14     9   ar
    25     7     2    1
    26     5     8    1
@<TRIPOS>MOLECULE
*****
 24 26 0 0 0
SMALL
GASTEIGER

@<TRIPOS>ATOM
      1 C         141.6644  141.6881  164.6269 C.3     1  UNL1        0.0847
      2 N         142.8706  142.0400  163.8075 N.3     1  UNL1       -0.2676
      3 C         142.8986  143.3194  163.0250 C.3     1  UNL1        0.0896
      4 C         144.1047  143.6713  162.2056 C.3     1  UNL1        0.0862
      5 N         145.2829  142.7437  162.1687 N.3     1  UNL1       -0.2951
      6 C         145.2549  141.4642  162.9512 C.3     1  UNL1        0.0862
      7 C         144.0488  141.1124  163.7706 C.3     1  UNL1        0.0896
      8 H         146.0868  143.2754  162.5023 H       1  UNL1        0.1233
      9 C         140.4130  142.5067  164.5092 C.ar    1  UNL1       -0.0074
     10 C         140.1549  143.6252  165.4748 C.ar    1  UNL1       -0.0030
     11 C         138.9034  144.4438  165.3571 C.ar    1  UNL1       -0.0003
     12 C         137.9101  144.1438  164.2738 C.ar    1  UNL1       -0.0000
     13 C         138.1683  143.0254  163.3082 C.ar    1  UNL1       -0.0003
     14 C         139.4197  142.2068  163.4259 C.ar    1  UNL1       -0.0030
     15 C         141.7097  140.5177  165.5640 C.3     1  UNL1        0.0522
     16 C         139.8031  138.8211  165.0778 C.ar    1  UNL1        0.1369
     17 C         138.5312  138.1425  165.4921 C.ar    1  UNL1        0.0367
     18 C         137.8940  138.4818  166.8070 C.ar    1  UNL1        0.0054
     19 C         138.5288  139.4997  167.7075 C.ar    1  UNL1        0.0295
     20 C         139.8006  140.1783  167.2932 C.ar    1  UNL1        0.1391
     21 F         139.9862  140.6781  167.8859 F       1  UNL1       -0.2044
     22 C         140.4378  139.8391  165.9783 C.ar    1  UNL1        0.0409
     23 C         141.1306  137.1625  163.5823 C.3     1  UNL1        0.2525
     24 O         140.4403  138.4819  163.7629 O.3     1  UNL1       -0.4717
@<TRIPOS>BOND
     1    23    24    1
     2    24    16    1
     3    16    17   ar
     4    17    18   ar
     5    18    19   ar
     6    19    20   ar
     7    20    21    1
     8    20    22   ar
     9    22    15    1
    10    15     1    1
    11     1     9    1
    12     9    10   ar
    13    10    11   ar
    14    11    12   ar
    15    12    13   ar
    16    13    14   ar
    17     1     2    1
    18     2     3    1
    19     3     4    1
    20     4     5    1
    21     5     6    1
    22     6     7    1
    23    22    16   ar
    24    14     9   ar
    25     7     2    1
    26     5     8    1
@<TRIPOS>MOLECULE
*****
 24 26 0 0 0
SMALL
GASTEIGER

@<TRIPOS>ATOM
      1 C         141.4057  140.5866  165.3145 C.3     1  UNL1        0.0847
      2 N         141.3941  139.4589  164.3254 N.3     1  UNL1       -0.2676
      3 C         140.1527  138.6380  164.1385 C.3     1  UNL1        0.0896
      4 C         140.1410  137.5103  163.1495 C.3     1  UNL1        0.0862
      5 N         141.3708  137.2036  162.3474 N.3     1  UNL1       -0.2951
      6 C         142.6122  138.0245  162.5342 C.3     1  UNL1        0.0862
      7 C         142.6239  139.1522  163.5232 C.3     1  UNL1        0.0896
      8 H         141.1093  137.2847  161.3648 H       1  UNL1        0.1233
      9 C         141.3224  140.2965  166.7837 C.ar    1  UNL1       -0.0074
     10 C         140.0309  140.5057  167.5175 C.ar    1  UNL1       -0.0030
     11 C         139.9477  140.2155  168.9868 C.ar    1  UNL1       -0.0003
     12 C         141.1558  139.7161  169.7224 C.ar    1  UNL1       -0.0000
     13 C         142.4472  139.5069  168.9886 C.ar    1  UNL1       -0.0003
     14 C         142.5306  139.7971  167.5193 C.ar    1  UNL1       -0.0030
     15 C         141.5007  142.0045  164.8342 C.3     1  UNL1        0.0522
     16 C         139.7554  142.5660  162.9933 C.ar    1  UNL1        0.1369
     17 C         138.5194  143.2932  162.5535 C.ar    1  UNL1        0.0367
     18 C         137.7926  144.1862  163.5149 C.ar    1  UNL1        0.0054
     19 C         138.3018  144.3519  164.9160 C.ar    1  UNL1        0.0295
     20 C         139.5378  143.6247  165.3558 C.ar    1  UNL1        0.1391
     21 F         139.6547  143.8305  166.1171 F       1  UNL1       -0.2044
     22 C         140.2646  142.7318  164.3944 C.ar    1  UNL1        0.0409
     23 C         139.7094  140.8019  161.0864 C.3     1  UNL1        0.2525
     24 O         140.4823  141.6729  162.0319 O.3     1  UNL1       -0.4717
@<TRIPOS>BOND
     1    23    24    1
     2    24    16    1
     3    16    17   ar
     4    17    18   ar
     5    18    19   ar
     6    19    20   ar
     7    20    21    1
     8    20    22   ar
     9    22    15    1
    10    15     1    1
    11     1     9    1
    12     9    10   ar
    13    10    11   ar
    14    11    12   ar
    15    12    13   ar
    16    13    14   ar
    17     1     2    1
    18     2     3    1
    19     3     4    1
    20     4     5    1
    21     5     6    1
    22     6     7    1
    23    22    16   ar
    24    14     9   ar
    25     7     2    1
    26     5     8    1
