@<TRIPOS>MOLECULE
*****
 33 37 0 0 0
SMALL
GASTEIGER

@<TRIPOS>ATOM
      1 C         138.7510  139.9198  164.9250 C.ar    1  UNL1        0.0016
      2 C         137.9744  139.0879  165.9021 C.ar    1  UNL1        0.0016
      3 C         138.3479  139.0933  167.3548 C.ar    1  UNL1        0.0192
      4 C         139.4980  139.9306  167.8304 C.ar    1  UNL1        0.0845
      5 N         139.8715  139.9360  169.2832 N.ar    1  UNL1       -0.2240
      6 C         141.0216  140.7733  169.7588 C.ar    1  UNL1        0.1988
      7 N         141.7982  141.6053  168.7816 N.ar    1  UNL1       -0.2240
      8 C         141.4247  141.5999  167.3289 C.ar    1  UNL1        0.0844
      9 C         140.2746  140.7625  166.8533 C.ar    1  UNL1        0.0354
     10 C         139.9011  140.7571  165.4006 C.ar    1  UNL1        0.0030
     11 C         137.6305  139.9038  160.5667 C.ar    1  UNL1        0.2250
     12 C         138.2434  138.6838  161.1880 C.ar    1  UNL1        0.0577
     13 C         138.6169  138.6892  162.6408 C.ar    1  UNL1        0.0063
     14 C         138.3775  139.9145  163.4722 C.ar    1  UNL1        0.0194
     15 C         137.7645  141.1344  162.8509 C.ar    1  UNL1        0.1020
     16 N         137.3910  141.1291  161.3982 N.ar    1  UNL1       -0.2101
     17 C         138.1262  140.6010  158.1136 C.3     1  UNL1        0.2542
     18 O         137.2570  139.8985  159.1140 O.3     1  UNL1       -0.4561
     19 C         142.2012  142.4318  166.3518 C.ar    1  UNL1        0.0179
     20 C         143.6764  142.6279  166.5398 C.ar    1  UNL1        0.0015
     21 C         144.4530  143.4599  165.5626 C.ar    1  UNL1        0.0002
     22 C         143.7544  144.0957  164.3975 C.ar    1  UNL1        0.0045
     23 C         142.2792  143.8997  164.2095 C.ar    1  UNL1        0.0536
     24 C         141.5026  143.0677  165.1866 C.ar    1  UNL1        0.0060
     25 C         141.5805  144.5356  163.0443 C.2     1  UNL1        0.2491
     26 O         140.4664  145.5120  163.2797 O.2     1  UNL1       -0.2699
     27 N         141.9960  144.1950  161.6438 N.am    1  UNL1       -0.2732
     28 C         143.1101  143.2186  161.4084 C.3     1  UNL1        0.1110
     29 C         143.5255  142.8781  160.0080 C.3     1  UNL1        0.0939
     30 N         142.8269  143.5140  158.8428 N.3     1  UNL1       -0.2686
     31 C         143.2424  143.1735  157.4423 C.3     1  UNL1        0.0897
     32 C         141.7128  144.4904  159.0781 C.3     1  UNL1        0.0939
     33 C         141.2974  144.8309  160.4787 C.3     1  UNL1        0.1110
@<TRIPOS>BOND
     1    17    18    1
     2    18    11    1
     3    11    12   ar
     4    12    13   ar
     5    13    14   ar
     6    14     1    1
     7     1     2   ar
     8     2     3   ar
     9     3     4   ar
    10     4     5   ar
    11     5     6   ar
    12     6     7   ar
    13     7     8   ar
    14     8    19    1
    15    19    20   ar
    16    20    21   ar
    17    21    22   ar
    18    22    23   ar
    19    23    25    1
    20    25    26    2
    21    25    27   am
    22    27    28    1
    23    28    29    1
    24    29    30    1
    25    30    31    1
    26    30    32    1
    27    32    33    1
    28    23    24   ar
    29     8     9   ar
    30     9    10   ar
    31    14    15   ar
    32    15    16   ar
    33    16    11   ar
    34    10     1   ar
    35     9     4   ar
    36    24    19   ar
    37    33    27    1
@<TRIPOS>MOLECULE
*****
 33 37 0 0 0
SMALL
GASTEIGER

@<TRIPOS>ATOM
      1 C         142.9396  139.6421  164.2771 C.ar    1  UNL1        0.0016
      2 C         143.6764  138.7050  165.1876 C.ar    1  UNL1        0.0016
      3 C         143.3736  138.6938  166.6566 C.ar    1  UNL1        0.0192
      4 C         142.3340  139.6197  167.2152 C.ar    1  UNL1        0.0845
      5 N         142.0312  139.6085  168.6843 N.ar    1  UNL1       -0.2240
      6 C         140.9916  140.5344  169.2429 C.ar    1  UNL1        0.1988
      7 N         140.2548  141.4715  168.3323 N.ar    1  UNL1       -0.2240
      8 C         140.5576  141.4827  166.8633 C.ar    1  UNL1        0.0844
      9 C         141.5972  140.5568  166.3047 C.ar    1  UNL1        0.0354
     10 C         141.9000  140.5680  164.8357 C.ar    1  UNL1        0.0030
     11 C         143.8480  139.6757  159.8698 C.ar    1  UNL1        0.2250
     12 C         143.2239  140.8769  160.5161 C.ar    1  UNL1        0.0577
     13 C         142.9211  140.8656  161.9852 C.ar    1  UNL1        0.0063
     14 C         143.2424  139.6533  162.8080 C.ar    1  UNL1        0.0194
     15 C         143.8665  138.4521  162.1617 C.ar    1  UNL1        0.1020
     16 N         144.1693  138.4633  160.6926 N.ar    1  UNL1       -0.2101
     17 C         144.5137  140.9730  157.7196 C.3     1  UNL1        0.2542
     18 O         144.1508  139.6869  158.4008 O.3     1  UNL1       -0.4561
     19 C         139.8208  142.4197  165.9528 C.ar    1  UNL1        0.0179
     20 C         139.5492  143.8294  166.3877 C.ar    1  UNL1        0.0015
     21 C         138.8124  144.7664  165.4772 C.ar    1  UNL1        0.0002
     22 C         138.3472  144.2939  164.1317 C.ar    1  UNL1        0.0045
     23 C         138.6188  142.8842  163.6968 C.ar    1  UNL1        0.0536
     24 C         139.3556  141.9472  164.6073 C.ar    1  UNL1        0.0060
     25 C         138.1536  142.4117  162.3513 C.2     1  UNL1        0.2491
     26 O         137.0147  141.4408  162.2499 O.2     1  UNL1       -0.2699
     27 N         138.8272  142.9101  161.1072 N.am    1  UNL1       -0.2732
     28 C         139.9661  143.8810  161.2085 C.3     1  UNL1        0.1110
     29 C         140.6397  144.3794  159.9645 C.3     1  UNL1        0.0939
     30 N         140.1745  143.9068  158.6189 N.3     1  UNL1       -0.2686
     31 C         140.8481  144.4052  157.3749 C.3     1  UNL1        0.0897
     32 C         139.0356  142.9359  158.5176 C.3     1  UNL1        0.0939
     33 C         138.3620  142.4375  159.7618 C.3     1  UNL1        0.1110
@<TRIPOS>BOND
     1    17    18    1
     2    18    11    1
     3    11    12   ar
     4    12    13   ar
     5    13    14   ar
     6    14     1    1
     7     1     2   ar
     8     2     3   ar
     9     3     4   ar
    10     4     5   ar
    11     5     6   ar
    12     6     7   ar
    13     7     8   ar
    14     8    19    1
    15    19    20   ar
    16    20    21   ar
    17    21    22   ar
    18    22    23   ar
    19    23    25    1
    20    25    26    2
    21    25    27   am
    22    27    28    1
    23    28    29    1
    24    29    30    1
    25    30    31    1
    26    30    32    1
    27    32    33    1
    28    23    24   ar
    29     8     9   ar
    30     9    10   ar
    31    14    15   ar
    32    15    16   ar
    33    16    11   ar
    34    10     1   ar
    35     9     4   ar
    36    24    19   ar
    37    33    27    1
@<TRIPOS>MOLECULE
*****
 33 37 0 0 0
SMALL
GASTEIGER

@<TRIPOS>ATOM
      1 C         142.7147  139.1433  164.7371 C.ar    1  UNL1        0.0016
      2 C         143.2625  138.2595  165.8181 C.ar    1  UNL1        0.0016
      3 C         143.1782  138.6892  167.2528 C.ar    1  UNL1        0.0192
      4 C         142.5460  140.0027  167.6063 C.ar    1  UNL1        0.0845
      5 N         142.4617  140.4324  169.0411 N.ar    1  UNL1       -0.2240
      6 C         141.8295  141.7459  169.3946 C.ar    1  UNL1        0.1988
      7 N         141.2817  142.6297  168.3135 N.ar    1  UNL1       -0.2240
      8 C         141.3660  142.2000  166.8789 C.ar    1  UNL1        0.0844
      9 C         141.9982  140.8865  166.5253 C.ar    1  UNL1        0.0354
     10 C         142.0825  140.4568  165.0907 C.ar    1  UNL1        0.0030
     11 C         142.9677  137.8543  160.4330 C.ar    1  UNL1        0.2250
     12 C         144.1000  138.6161  161.0555 C.ar    1  UNL1        0.0577
     13 C         144.0156  139.0458  162.4903 C.ar    1  UNL1        0.0063
     14 C         142.7990  138.7136  163.3024 C.ar    1  UNL1        0.0194
     15 C         141.6667  137.9518  162.6798 C.ar    1  UNL1        0.1020
     16 N         141.7510  137.5222  161.2452 N.ar    1  UNL1       -0.2101
     17 C         142.0788  137.9678  157.9944 C.3     1  UNL1        0.2542
     18 O         143.0519  137.4246  158.9984 O.3     1  UNL1       -0.4561
     19 C         140.8182  143.0839  165.7978 C.ar    1  UNL1        0.0179
     20 C         139.5159  143.7995  166.0022 C.ar    1  UNL1        0.0015
     21 C         138.9680  144.6834  164.9211 C.ar    1  UNL1        0.0002
     22 C         139.7225  144.8516  163.6357 C.ar    1  UNL1        0.0045
     23 C         141.0249  144.1359  163.4313 C.ar    1  UNL1        0.0536
     24 C         141.5727  143.2521  164.5123 C.ar    1  UNL1        0.0060
     25 C         141.7794  144.3041  162.1458 C.2     1  UNL1        0.2491
     26 O         143.1649  144.8786  162.1590 O.2     1  UNL1       -0.2699
     27 N         141.1483  143.8978  160.8471 N.am    1  UNL1       -0.2732
     28 C         139.7628  143.3233  160.8338 C.3     1  UNL1        0.1110
     29 C         139.1318  142.9170  159.5351 C.3     1  UNL1        0.0939
     30 N         139.8863  143.0852  158.2496 N.3     1  UNL1       -0.2686
     31 C         139.2552  142.6789  156.9509 C.3     1  UNL1        0.0897
     32 C         141.2718  143.6597  158.2628 C.3     1  UNL1        0.0939
     33 C         141.9029  144.0660  159.5616 C.3     1  UNL1        0.1110
@<TRIPOS>BOND
     1    17    18    1
     2    18    11    1
     3    11    12   ar
     4    12    13   ar
     5    13    14   ar
     6    14     1    1
     7     1     2   ar
     8     2     3   ar
     9     3     4   ar
    10     4     5   ar
    11     5     6   ar
    12     6     7   ar
    13     7     8   ar
    14     8    19    1
    15    19    20   ar
    16    20    21   ar
    17    21    22   ar
    18    22    23   ar
    19    23    25    1
    20    25    26    2
    21    25    27   am
    22    27    28    1
    23    28    29    1
    24    29    30    1
    25    30    31    1
    26    30    32    1
    27    32    33    1
    28    23    24   ar
    29     8     9   ar
    30     9    10   ar
    31    14    15   ar
    32    15    16   ar
    33    16    11   ar
    34    10     1   ar
    35     9     4   ar
    36    24    19   ar
    37    33    27    1
@<TRIPOS>MOLECULE
*****
 33 37 0 0 0
SMALL
GASTEIGER

@<TRIPOS>ATOM
      1 C         139.9386  143.1274  165.2603 C.ar    1  UNL1        0.0016
      2 C         138.8850  144.1937  165.3129 C.ar    1  UNL1        0.0016
      3 C         138.6801  145.1040  164.1385 C.ar    1  UNL1        0.0192
      4 C         139.5288  144.9481  162.9116 C.ar    1  UNL1        0.0845
      5 N         139.3238  145.8585  161.7372 N.ar    1  UNL1       -0.2240
      6 C         140.1725  145.7026  160.5102 C.ar    1  UNL1        0.1988
      7 N         141.2262  144.6362  160.4577 N.ar    1  UNL1       -0.2240
      8 C         141.4311  143.7259  161.6321 C.ar    1  UNL1        0.0844
      9 C         140.5824  143.8818  162.8590 C.ar    1  UNL1        0.0354
     10 C         140.7873  142.9714  164.0334 C.ar    1  UNL1        0.0030
     11 C         140.5535  140.3960  168.7834 C.ar    1  UNL1        0.2250
     12 C         140.8493  141.8612  168.9097 C.ar    1  UNL1        0.0577
     13 C         140.6443  142.7716  167.7353 C.ar    1  UNL1        0.0063
     14 C         140.1436  142.2169  166.4347 C.ar    1  UNL1        0.0194
     15 C         139.8479  140.7518  166.3084 C.ar    1  UNL1        0.1020
     16 N         140.0528  139.8414  167.4828 N.ar    1  UNL1       -0.2101
     17 C         142.1335  138.9854  170.2879 C.3     1  UNL1        0.2542
     18 O         140.7585  139.4856  169.9578 O.3     1  UNL1       -0.4561
     19 C         142.4847  142.6596  161.5795 C.ar    1  UNL1        0.0179
     20 C         143.8560  142.9327  162.1226 C.ar    1  UNL1        0.0015
     21 C         144.9097  141.8663  162.0700 C.ar    1  UNL1        0.0002
     22 C         144.5920  140.5269  161.4743 C.ar    1  UNL1        0.0045
     23 C         143.2208  140.2537  160.9312 C.ar    1  UNL1        0.0536
     24 C         142.1671  141.3200  160.9837 C.ar    1  UNL1        0.0060
     25 C         142.9032  138.9142  160.3354 C.2     1  UNL1        0.2491
     26 O         142.5129  137.7712  161.2250 O.2     1  UNL1       -0.2699
     27 N         142.9758  138.7177  158.8501 N.am    1  UNL1       -0.2732
     28 C         143.3661  139.8606  157.9606 C.3     1  UNL1        0.1110
     29 C         143.4388  139.6641  156.4753 C.3     1  UNL1        0.0939
     30 N         143.1212  138.3245  155.8795 N.3     1  UNL1       -0.2686
     31 C         143.1938  138.1280  154.3943 C.3     1  UNL1        0.0897
     32 C         142.7309  137.1816  156.7691 C.3     1  UNL1        0.0939
     33 C         142.6582  137.3782  158.2545 C.3     1  UNL1        0.1110
@<TRIPOS>BOND
     1    17    18    1
     2    18    11    1
     3    11    12   ar
     4    12    13   ar
     5    13    14   ar
     6    14     1    1
     7     1     2   ar
     8     2     3   ar
     9     3     4   ar
    10     4     5   ar
    11     5     6   ar
    12     6     7   ar
    13     7     8   ar
    14     8    19    1
    15    19    20   ar
    16    20    21   ar
    17    21    22   ar
    18    22    23   ar
    19    23    25    1
    20    25    26    2
    21    25    27   am
    22    27    28    1
    23    28    29    1
    24    29    30    1
    25    30    31    1
    26    30    32    1
    27    32    33    1
    28    23    24   ar
    29     8     9   ar
    30     9    10   ar
    31    14    15   ar
    32    15    16   ar
    33    16    11   ar
    34    10     1   ar
    35     9     4   ar
    36    24    19   ar
    37    33    27    1
@<TRIPOS>MOLECULE
*****
 33 37 0 0 0
SMALL
GASTEIGER

@<TRIPOS>ATOM
      1 C         140.4187  138.6675  162.8837 C.ar    1  UNL1        0.0016
      2 C         139.5883  137.6226  163.5682 C.ar    1  UNL1        0.0016
      3 C         139.1790  137.8088  164.9992 C.ar    1  UNL1        0.0192
      4 C         139.6001  139.0398  165.7457 C.ar    1  UNL1        0.0845
      5 N         139.1907  139.2259  167.1768 N.ar    1  UNL1       -0.2240
      6 C         139.6119  140.4569  167.9233 C.ar    1  UNL1        0.1988
      7 N         140.4423  141.5018  167.2387 N.ar    1  UNL1       -0.2240
      8 C         140.8516  141.3157  165.8077 C.ar    1  UNL1        0.0844
      9 C         140.4305  140.0846  165.0612 C.ar    1  UNL1        0.0354
     10 C         140.8398  139.8985  163.6302 C.ar    1  UNL1        0.0030
     11 C         141.6467  138.1092  158.5906 C.ar    1  UNL1        0.2250
     12 C         142.6566  137.9433  159.6872 C.ar    1  UNL1        0.0577
     13 C         142.2473  138.1294  161.1182 C.ar    1  UNL1        0.0063
     14 C         140.8280  138.4814  161.4527 C.ar    1  UNL1        0.0194
     15 C         139.8181  138.6472  160.3561 C.ar    1  UNL1        0.1020
     16 N         140.2274  138.4612  158.9251 N.ar    1  UNL1       -0.2101
     17 C         142.8798  136.7338  156.7638 C.3     1  UNL1        0.2542
     18 O         142.0560  137.9231  157.1596 O.3     1  UNL1       -0.4561
     19 C         141.6821  142.3605  165.1232 C.ar    1  UNL1        0.0179
     20 C         143.0796  142.6349  165.5940 C.ar    1  UNL1        0.0015
     21 C         143.9100  143.6799  164.9094 C.ar    1  UNL1        0.0002
     22 C         143.3429  144.4504  163.7542 C.ar    1  UNL1        0.0045
     23 C         141.9454  144.1760  163.2834 C.ar    1  UNL1        0.0536
     24 C         141.1150  143.1311  163.9679 C.ar    1  UNL1        0.0060
     25 C         141.3783  144.9466  162.1281 C.2     1  UNL1        0.2491
     26 O         140.4369  146.0874  162.3773 O.2     1  UNL1       -0.2699
     27 N         141.7526  144.5762  160.7236 N.am    1  UNL1       -0.2732
     28 C         142.6941  143.4354  160.4743 C.3     1  UNL1        0.1110
     29 C         143.0684  143.0651  159.0698 C.3     1  UNL1        0.0939
     30 N         142.5013  143.8357  157.9144 N.3     1  UNL1       -0.2686
     31 C         142.8757  143.4653  156.5099 C.3     1  UNL1        0.0897
     32 C         141.5599  144.9765  158.1637 C.3     1  UNL1        0.0939
     33 C         141.1855  145.3468  159.5683 C.3     1  UNL1        0.1110
@<TRIPOS>BOND
     1    17    18    1
     2    18    11    1
     3    11    12   ar
     4    12    13   ar
     5    13    14   ar
     6    14     1    1
     7     1     2   ar
     8     2     3   ar
     9     3     4   ar
    10     4     5   ar
    11     5     6   ar
    12     6     7   ar
    13     7     8   ar
    14     8    19    1
    15    19    20   ar
    16    20    21   ar
    17    21    22   ar
    18    22    23   ar
    19    23    25    1
    20    25    26    2
    21    25    27   am
    22    27    28    1
    23    28    29    1
    24    29    30    1
    25    30    31    1
    26    30    32    1
    27    32    33    1
    28    23    24   ar
    29     8     9   ar
    30     9    10   ar
    31    14    15   ar
    32    15    16   ar
    33    16    11   ar
    34    10     1   ar
    35     9     4   ar
    36    24    19   ar
    37    33    27    1
@<TRIPOS>MOLECULE
*****
 33 37 0 0 0
SMALL
GASTEIGER

@<TRIPOS>ATOM
      1 C         143.2532  142.5384  164.0642 C.ar    1  UNL1        0.0016
      2 C         144.2883  143.4104  164.7108 C.ar    1  UNL1        0.0016
      3 C         144.4182  143.4383  166.2049 C.ar    1  UNL1        0.0192
      4 C         143.5131  142.5942  167.0524 C.ar    1  UNL1        0.0845
      5 N         143.6431  142.6221  168.5465 N.ar    1  UNL1       -0.2240
      6 C         142.7380  141.7780  169.3940 C.ar    1  UNL1        0.1988
      7 N         141.7029  140.9059  168.7473 N.ar    1  UNL1       -0.2240
      8 C         141.5729  140.8780  167.2533 C.ar    1  UNL1        0.0844
      9 C         142.4781  141.7222  166.4058 C.ar    1  UNL1        0.0354
     10 C         142.3481  141.6942  164.9117 C.ar    1  UNL1        0.0030
     11 C         142.8633  142.4546  159.5819 C.ar    1  UNL1        0.2250
     12 C         141.8816  141.7064  160.4342 C.ar    1  UNL1        0.0577
     13 C         142.0116  141.7343  161.9284 C.ar    1  UNL1        0.0063
     14 C         143.1232  142.5104  162.5701 C.ar    1  UNL1        0.0194
     15 C         144.1049  143.2586  161.7178 C.ar    1  UNL1        0.1020
     16 N         143.9749  143.2307  160.2237 N.ar    1  UNL1       -0.2101
     17 C         143.0450  141.1695  157.3313 C.3     1  UNL1        0.2542
     18 O         142.7333  142.4267  158.0878 O.3     1  UNL1       -0.4561
     19 C         140.5379  140.0060  166.6067 C.ar    1  UNL1        0.0179
     20 C         139.2595  139.6980  167.3285 C.ar    1  UNL1        0.0015
     21 C         138.2244  138.8259  166.6818 C.ar    1  UNL1        0.0002
     22 C         138.4677  138.2619  165.3134 C.ar    1  UNL1        0.0045
     23 C         139.7460  138.5698  164.5916 C.ar    1  UNL1        0.0536
     24 C         140.7811  139.4418  165.2382 C.ar    1  UNL1        0.0060
     25 C         139.9893  138.0057  163.2231 C.2     1  UNL1        0.2491
     26 O         140.7526  136.7241  163.0650 O.2     1  UNL1       -0.2699
     27 N         139.4692  138.7231  162.0128 N.am    1  UNL1       -0.2732
     28 C         138.7058  140.0046  162.1709 C.3     1  UNL1        0.1110
     29 C         138.1858  140.7220  160.9607 C.3     1  UNL1        0.0939
     30 N         138.4290  140.1578  159.5922 N.3     1  UNL1       -0.2686
     31 C         137.9089  140.8752  158.3819 C.3     1  UNL1        0.0897
     32 C         139.1923  138.8763  159.4341 C.3     1  UNL1        0.0939
     33 C         139.7124  138.1589  160.6445 C.3     1  UNL1        0.1110
@<TRIPOS>BOND
     1    17    18    1
     2    18    11    1
     3    11    12   ar
     4    12    13   ar
     5    13    14   ar
     6    14     1    1
     7     1     2   ar
     8     2     3   ar
     9     3     4   ar
    10     4     5   ar
    11     5     6   ar
    12     6     7   ar
    13     7     8   ar
    14     8    19    1
    15    19    20   ar
    16    20    21   ar
    17    21    22   ar
    18    22    23   ar
    19    23    25    1
    20    25    26    2
    21    25    27   am
    22    27    28    1
    23    28    29    1
    24    29    30    1
    25    30    31    1
    26    30    32    1
    27    32    33    1
    28    23    24   ar
    29     8     9   ar
    30     9    10   ar
    31    14    15   ar
    32    15    16   ar
    33    16    11   ar
    34    10     1   ar
    35     9     4   ar
    36    24    19   ar
    37    33    27    1
@<TRIPOS>MOLECULE
*****
 33 37 0 0 0
SMALL
GASTEIGER

@<TRIPOS>ATOM
      1 C         141.0361  141.3581  158.9258 C.ar    1  UNL1        0.0016
      2 C         139.9814  142.1918  158.2607 C.ar    1  UNL1        0.0016
      3 C         139.5439  143.4844  158.8834 C.ar    1  UNL1        0.0192
      4 C         140.1612  143.9433  160.1712 C.ar    1  UNL1        0.0845
      5 N         139.7237  145.2360  160.7938 N.ar    1  UNL1       -0.2240
      6 C         140.3409  145.6949  162.0816 C.ar    1  UNL1        0.1988
      7 N         141.3957  144.8611  162.7467 N.ar    1  UNL1       -0.2240
      8 C         141.8332  143.5685  162.1241 C.ar    1  UNL1        0.0844
      9 C         141.2159  143.1096  160.8363 C.ar    1  UNL1        0.0354
     10 C         141.6534  141.8170  160.2136 C.ar    1  UNL1        0.0030
     11 C         142.3487  137.4801  157.0579 C.ar    1  UNL1        0.2250
     12 C         140.8915  137.7403  157.3005 C.ar    1  UNL1        0.0577
     13 C         140.4540  139.0330  157.9232 C.ar    1  UNL1        0.0063
     14 C         141.4737  140.0654  158.3032 C.ar    1  UNL1        0.0194
     15 C         142.9308  139.8052  158.0605 C.ar    1  UNL1        0.1020
     16 N         143.3684  138.5126  157.4379 N.ar    1  UNL1       -0.2101
     17 C         144.0666  136.1259  155.6562 C.3     1  UNL1        0.2542
     18 O         142.7863  136.1875  156.4352 O.3     1  UNL1       -0.4561
     19 C         142.8879  142.7348  162.7892 C.ar    1  UNL1        0.0179
     20 C         144.3269  142.8922  162.3961 C.ar    1  UNL1        0.0015
     21 C         145.3816  142.0584  163.0613 C.ar    1  UNL1        0.0002
     22 C         144.9974  141.0673  164.1195 C.ar    1  UNL1        0.0045
     23 C         143.5584  140.9098  164.5126 C.ar    1  UNL1        0.0536
     24 C         142.5037  141.7436  163.8475 C.ar    1  UNL1        0.0060
     25 C         143.1742  139.9186  165.5709 C.2     1  UNL1        0.2491
     26 O         143.1193  138.4557  165.2439 O.2     1  UNL1       -0.2699
     27 N         142.8449  140.3903  166.9562 N.am    1  UNL1       -0.2732
     28 C         142.8998  141.8532  167.2833 C.3     1  UNL1        0.1110
     29 C         142.5705  142.3248  168.6685 C.3     1  UNL1        0.0939
     30 N         142.1862  141.3336  169.7268 N.3     1  UNL1       -0.2686
     31 C         141.8569  141.8053  171.1121 C.3     1  UNL1        0.0897
     32 C         142.1313  139.8707  169.3998 C.3     1  UNL1        0.0939
     33 C         142.4606  139.3991  168.0144 C.3     1  UNL1        0.1110
@<TRIPOS>BOND
     1    17    18    1
     2    18    11    1
     3    11    12   ar
     4    12    13   ar
     5    13    14   ar
     6    14     1    1
     7     1     2   ar
     8     2     3   ar
     9     3     4   ar
    10     4     5   ar
    11     5     6   ar
    12     6     7   ar
    13     7     8   ar
    14     8    19    1
    15    19    20   ar
    16    20    21   ar
    17    21    22   ar
    18    22    23   ar
    19    23    25    1
    20    25    26    2
    21    25    27   am
    22    27    28    1
    23    28    29    1
    24    29    30    1
    25    30    31    1
    26    30    32    1
    27    32    33    1
    28    23    24   ar
    29     8     9   ar
    30     9    10   ar
    31    14    15   ar
    32    15    16   ar
    33    16    11   ar
    34    10     1   ar
    35     9     4   ar
    36    24    19   ar
    37    33    27    1
@<TRIPOS>MOLECULE
*****
 33 37 0 0 0
SMALL
GASTEIGER

@<TRIPOS>ATOM
      1 C         142.6960  139.6137  163.3594 C.ar    1  UNL1        0.0016
      2 C         143.6747  139.0238  164.3310 C.ar    1  UNL1        0.0016
      3 C         143.6861  139.4858  165.7580 C.ar    1  UNL1        0.0192
      4 C         142.7186  140.5378  166.2134 C.ar    1  UNL1        0.0845
      5 N         142.7300  140.9998  167.6405 N.ar    1  UNL1       -0.2240
      6 C         141.7626  142.0518  168.0959 C.ar    1  UNL1        0.1988
      7 N         140.7838  142.6417  167.1243 N.ar    1  UNL1       -0.2240
      8 C         140.7724  142.1797  165.6973 C.ar    1  UNL1        0.0844
      9 C         141.7399  141.1277  165.2419 C.ar    1  UNL1        0.0354
     10 C         141.7285  140.6657  163.8149 C.ar    1  UNL1        0.0030
     11 C         142.6619  138.2275  159.0783 C.ar    1  UNL1        0.2250
     12 C         142.1873  139.6080  159.4235 C.ar    1  UNL1        0.0577
     13 C         142.1986  140.0700  160.8505 C.ar    1  UNL1        0.0063
     14 C         142.6846  139.1516  161.9323 C.ar    1  UNL1        0.0194
     15 C         143.1592  137.7712  161.5872 C.ar    1  UNL1        0.1020
     16 N         143.1479  137.3091  160.1602 N.ar    1  UNL1       -0.2101
     17 C         142.9908  138.7249  156.5496 C.3     1  UNL1        0.2542
     18 O         142.6505  137.7655  157.6513 O.3     1  UNL1       -0.4561
     19 C         139.7937  142.7696  164.7257 C.ar    1  UNL1        0.0179
     20 C         138.3367  142.4277  164.8280 C.ar    1  UNL1        0.0015
     21 C         137.3579  143.0177  163.8563 C.ar    1  UNL1        0.0002
     22 C         137.8361  143.9495  162.7826 C.ar    1  UNL1        0.0045
     23 C         139.2930  144.2914  162.6804 C.ar    1  UNL1        0.0536
     24 C         140.2718  143.7015  163.6519 C.ar    1  UNL1        0.0060
     25 C         139.7712  145.2233  161.6065 C.2     1  UNL1        0.2491
     26 O         139.9226  146.6871  161.8967 O.2     1  UNL1       -0.2699
     27 N         140.0979  144.6913  160.2427 N.am    1  UNL1       -0.2732
     28 C         139.9464  143.2274  159.9525 C.3     1  UNL1        0.1110
     29 C         140.2731  142.6954  158.5886 C.3     1  UNL1        0.0939
     30 N         140.7513  143.6273  157.5148 N.3     1  UNL1       -0.2686
     31 C         141.0780  143.0953  156.1509 C.3     1  UNL1        0.0897
     32 C         140.9027  145.0912  157.8049 C.3     1  UNL1        0.0939
     33 C         140.5760  145.6232  159.1689 C.3     1  UNL1        0.1110
@<TRIPOS>BOND
     1    17    18    1
     2    18    11    1
     3    11    12   ar
     4    12    13   ar
     5    13    14   ar
     6    14     1    1
     7     1     2   ar
     8     2     3   ar
     9     3     4   ar
    10     4     5   ar
    11     5     6   ar
    12     6     7   ar
    13     7     8   ar
    14     8    19    1
    15    19    20   ar
    16    20    21   ar
    17    21    22   ar
    18    22    23   ar
    19    23    25    1
    20    25    26    2
    21    25    27   am
    22    27    28    1
    23    28    29    1
    24    29    30    1
    25    30    31    1
    26    30    32    1
    27    32    33    1
    28    23    24   ar
    29     8     9   ar
    30     9    10   ar
    31    14    15   ar
    32    15    16   ar
    33    16    11   ar
    34    10     1   ar
    35     9     4   ar
    36    24    19   ar
    37    33    27    1
@<TRIPOS>MOLECULE
*****
 33 37 0 0 0
SMALL
GASTEIGER

@<TRIPOS>ATOM
      1 C         139.9364  143.9140  162.9821 C.ar    1  UNL1        0.0016
      2 C         139.0272  144.7248  163.8571 C.ar    1  UNL1        0.0016
      3 C         139.0273  144.5101  165.3416 C.ar    1  UNL1        0.0192
      4 C         139.9367  143.4846  165.9511 C.ar    1  UNL1        0.0845
      5 N         139.9368  143.2700  167.4357 N.ar    1  UNL1       -0.2240
      6 C         140.8461  142.2445  168.0452 C.ar    1  UNL1        0.1988
      7 N         141.7554  141.4336  167.1700 N.ar    1  UNL1       -0.2240
      8 C         141.7553  141.6483  165.6855 C.ar    1  UNL1        0.0844
      9 C         140.8459  142.6738  165.0760 C.ar    1  UNL1        0.0354
     10 C         140.8458  142.8885  163.5915 C.ar    1  UNL1        0.0030
     11 C         139.9361  144.5578  158.5283 C.ar    1  UNL1        0.2250
     12 C         140.7147  145.4797  159.4193 C.ar    1  UNL1        0.0577
     13 C         140.7148  145.2651  160.9039 C.ar    1  UNL1        0.0063
     14 C         139.9364  144.1286  161.4974 C.ar    1  UNL1        0.0194
     15 C         139.1578  143.2067  160.6064 C.ar    1  UNL1        0.1020
     16 N         139.1577  143.4213  159.1219 N.ar    1  UNL1       -0.2101
     17 C         140.0598  146.1595  156.4865 C.3     1  UNL1        0.2542
     18 O         139.9360  144.7724  157.0437 O.3     1  UNL1       -0.4561
     19 C         142.6645  140.8375  164.8104 C.ar    1  UNL1        0.0179
     20 C         144.1428  140.8332  165.0648 C.ar    1  UNL1        0.0015
     21 C         145.0520  140.0223  164.1896 C.ar    1  UNL1        0.0002
     22 C         144.4829  139.2157  163.0602 C.ar    1  UNL1        0.0045
     23 C         143.0047  139.2200  162.8059 C.ar    1  UNL1        0.0536
     24 C         142.0954  140.0308  163.6809 C.ar    1  UNL1        0.0060
     25 C         142.4356  138.4134  161.6764 C.2     1  UNL1        0.2491
     26 O         141.5150  137.2647  161.9645 O.2     1  UNL1       -0.2699
     27 N         142.7872  138.7554  160.2589 N.am    1  UNL1       -0.2732
     28 C         143.7079  139.9041  159.9708 C.3     1  UNL1        0.1110
     29 C         144.0595  140.2462  158.5533 C.3     1  UNL1        0.0939
     30 N         143.4904  139.4396  157.4238 N.3     1  UNL1       -0.2686
     31 C         143.8420  139.7816  156.0063 C.3     1  UNL1        0.0897
     32 C         142.5698  138.2909  157.7119 C.3     1  UNL1        0.0939
     33 C         142.2182  137.9488  159.1295 C.3     1  UNL1        0.1110
@<TRIPOS>BOND
     1    17    18    1
     2    18    11    1
     3    11    12   ar
     4    12    13   ar
     5    13    14   ar
     6    14     1    1
     7     1     2   ar
     8     2     3   ar
     9     3     4   ar
    10     4     5   ar
    11     5     6   ar
    12     6     7   ar
    13     7     8   ar
    14     8    19    1
    15    19    20   ar
    16    20    21   ar
    17    21    22   ar
    18    22    23   ar
    19    23    25    1
    20    25    26    2
    21    25    27   am
    22    27    28    1
    23    28    29    1
    24    29    30    1
    25    30    31    1
    26    30    32    1
    27    32    33    1
    28    23    24   ar
    29     8     9   ar
    30     9    10   ar
    31    14    15   ar
    32    15    16   ar
    33    16    11   ar
    34    10     1   ar
    35     9     4   ar
    36    24    19   ar
    37    33    27    1
