@<TRIPOS>MOLECULE
*****
 26 29 0 0 0
SMALL
GASTEIGER

@<TRIPOS>ATOM
      1 O         138.1387  143.2736  161.2054 O.2     1  UNL1       -0.2666
      2 C         139.0500  143.4339  162.3860 C.2     1  UNL1        0.2837
      3 C         138.9780  142.4622  163.5265 C.ar    1  UNL1        0.1985
      4 N         138.1170  141.2575  163.7658 N.ar    1  UNL1       -0.2227
      5 C         138.4961  140.6733  165.0943 C.ar    1  UNL1        0.0988
      6 C         137.9854  139.4822  165.8495 C.ar    1  UNL1        0.0206
      7 C         138.5701  139.1346  167.1864 C.ar    1  UNL1        0.0016
      8 C         139.6655  139.9782  167.7681 C.ar    1  UNL1        0.0054
      9 C         140.1762  141.1693  167.0129 C.ar    1  UNL1        0.0887
     10 C         139.5915  141.5169  165.6761 C.ar    1  UNL1        0.0829
     11 N         139.8894  142.6225  164.7070 N.ar    1  UNL1       -0.3061
     12 C         140.8727  143.7545  164.7472 C.3     1  UNL1        0.1291
     13 C         140.9447  144.7262  163.6067 C.3     1  UNL1        0.1186
     14 N         140.0334  144.5659  162.4261 N.am    1  UNL1       -0.2675
     15 C         141.2717  142.0129  167.5946 C.3     1  UNL1        0.4200
     16 F         142.3671  142.8565  168.1763 F       1  UNL1       -0.1658
     17 F         142.2914  141.0320  167.0969 F       1  UNL1       -0.1658
     18 F         140.2519  142.9939  168.0924 F       1  UNL1       -0.1658
     19 C         140.1054  145.5376  161.2857 C.3     1  UNL1        0.1206
     20 C         140.7734  145.1402  160.0028 C.ar    1  UNL1       -0.0023
     21 C         141.8756  144.1229  160.0150 C.ar    1  UNL1       -0.0017
     22 C         142.5437  143.7255  158.7320 C.ar    1  UNL1        0.0111
     23 C         142.1094  144.3453  157.4370 C.ar    1  UNL1        0.0577
     24 CL        142.7774  143.9479  156.1541 Cl      1  UNL1       -0.0822
     25 C         141.0071  145.3627  157.4248 C.ar    1  UNL1        0.0111
     26 C         140.3391  145.7601  158.7077 C.ar    1  UNL1       -0.0017
@<TRIPOS>BOND
     1     1     2    2
     2     2     3    1
     3     3     4   ar
     4     4     5   ar
     5     5     6   ar
     6     6     7   ar
     7     7     8   ar
     8     8     9   ar
     9     9    15    1
    10    15    16    1
    11    15    17    1
    12    15    18    1
    13     9    10   ar
    14    10    11   ar
    15    11    12    1
    16    12    13    1
    17    13    14    1
    18    14    19    1
    19    19    20    1
    20    20    21   ar
    21    21    22   ar
    22    22    23   ar
    23    23    24    1
    24    23    25   ar
    25    25    26   ar
    26    14     2   am
    27    26    20   ar
    28    11     3   ar
    29    10     5   ar
@<TRIPOS>MOLECULE
*****
 26 29 0 0 0
SMALL
GASTEIGER

@<TRIPOS>ATOM
      1 O         138.3712  145.2549  162.1939 O.2     1  UNL1       -0.2666
      2 C         139.7902  144.7848  162.3186 C.2     1  UNL1        0.2837
      3 C         140.2641  144.1612  163.5979 C.ar    1  UNL1        0.1985
      4 N         139.5669  143.8797  164.8958 N.ar    1  UNL1       -0.2227
      5 C         140.5550  143.2356  165.8226 C.ar    1  UNL1        0.0988
      6 C         140.4327  142.7403  167.2331 C.ar    1  UNL1        0.0206
      7 C         141.6184  142.1284  167.9185 C.ar    1  UNL1        0.0016
      8 C         142.9262  142.0119  167.1934 C.ar    1  UNL1        0.0054
      9 C         143.0485  142.5072  165.7828 C.ar    1  UNL1        0.0887
     10 C         141.8629  143.1191  165.0975 C.ar    1  UNL1        0.0829
     11 N         141.6831  143.6911  163.7225 N.ar    1  UNL1       -0.3061
     12 C         142.6282  143.8447  162.5679 C.3     1  UNL1        0.1291
     13 C         142.1543  144.4684  161.2886 C.3     1  UNL1        0.1186
     14 N         140.7353  144.9384  161.1639 N.am    1  UNL1       -0.2675
     15 C         144.3564  142.3907  165.0577 C.3     1  UNL1        0.4200
     16 F         145.6643  142.2742  164.3326 F       1  UNL1       -0.1658
     17 F         144.7435  143.7586  165.5361 F       1  UNL1       -0.1658
     18 F         143.9693  141.0228  164.5792 F       1  UNL1       -0.1658
     19 C         140.2614  145.5620  159.8847 C.3     1  UNL1        0.1206
     20 C         140.7337  145.0224  158.5672 C.ar    1  UNL1       -0.0023
     21 C         141.6782  145.8255  157.7229 C.ar    1  UNL1       -0.0017
     22 C         142.1505  145.2859  156.4054 C.ar    1  UNL1        0.0111
     23 C         141.6783  143.9430  155.9323 C.ar    1  UNL1        0.0577
     24 CL        142.1506  143.4033  154.6148 Cl      1  UNL1       -0.0822
     25 C         140.7338  143.1398  156.7767 C.ar    1  UNL1        0.0111
     26 C         140.2615  143.6795  158.0941 C.ar    1  UNL1       -0.0017
@<TRIPOS>BOND
     1     1     2    2
     2     2     3    1
     3     3     4   ar
     4     4     5   ar
     5     5     6   ar
     6     6     7   ar
     7     7     8   ar
     8     8     9   ar
     9     9    15    1
    10    15    16    1
    11    15    17    1
    12    15    18    1
    13     9    10   ar
    14    10    11   ar
    15    11    12    1
    16    12    13    1
    17    13    14    1
    18    14    19    1
    19    19    20    1
    20    20    21   ar
    21    21    22   ar
    22    22    23   ar
    23    23    24    1
    24    23    25   ar
    25    25    26   ar
    26    14     2   am
    27    26    20   ar
    28    11     3   ar
    29    10     5   ar
@<TRIPOS>MOLECULE
*****
 26 29 0 0 0
SMALL
GASTEIGER

@<TRIPOS>ATOM
      1 O         144.0979  139.6597  158.5535 O.2     1  UNL1       -0.2666
      2 C         143.0098  139.1742  159.4648 C.2     1  UNL1        0.2837
      3 C         143.2481  139.0989  160.9438 C.ar    1  UNL1        0.1985
      4 N         144.4435  139.4327  161.7862 N.ar    1  UNL1       -0.2227
      5 C         144.0942  139.1536  163.2180 C.ar    1  UNL1        0.0988
      6 C         144.8790  139.2951  164.4885 C.ar    1  UNL1        0.0206
      7 C         144.2524  138.9302  165.8016 C.ar    1  UNL1        0.0016
      8 C         142.8411  138.4239  165.8441 C.ar    1  UNL1        0.0054
      9 C         142.0564  138.2824  164.5737 C.ar    1  UNL1        0.0887
     10 C         142.6830  138.6472  163.2606 C.ar    1  UNL1        0.0829
     11 N         142.1600  138.6134  161.8551 N.ar    1  UNL1       -0.3061
     12 C         140.8336  138.2033  161.2873 C.3     1  UNL1        0.1291
     13 C         140.5953  138.2786  159.8082 C.3     1  UNL1        0.1186
     14 N         141.6834  138.7641  158.8970 N.am    1  UNL1       -0.2675
     15 C         140.6451  137.7760  164.6163 C.3     1  UNL1        0.4200
     16 F         139.2338  137.2696  164.6588 F       1  UNL1       -0.1658
     17 F         140.1738  139.1272  165.0658 F       1  UNL1       -0.1658
     18 F         141.1163  136.4247  164.1667 F       1  UNL1       -0.1658
     19 C         141.4451  138.8394  157.4179 C.3     1  UNL1        0.1206
     20 C         141.7058  137.6410  156.5543 C.ar    1  UNL1       -0.0023
     21 C         140.5628  136.9330  155.8892 C.ar    1  UNL1       -0.0017
     22 C         140.8235  135.7345  155.0255 C.ar    1  UNL1        0.0111
     23 C         142.2271  135.2442  154.8269 C.ar    1  UNL1        0.0577
     24 CL        142.4878  134.0459  153.9632 Cl      1  UNL1       -0.0822
     25 C         143.3701  135.9524  155.4920 C.ar    1  UNL1        0.0111
     26 C         143.1094  137.1507  156.3556 C.ar    1  UNL1       -0.0017
@<TRIPOS>BOND
     1     1     2    2
     2     2     3    1
     3     3     4   ar
     4     4     5   ar
     5     5     6   ar
     6     6     7   ar
     7     7     8   ar
     8     8     9   ar
     9     9    15    1
    10    15    16    1
    11    15    17    1
    12    15    18    1
    13     9    10   ar
    14    10    11   ar
    15    11    12    1
    16    12    13    1
    17    13    14    1
    18    14    19    1
    19    19    20    1
    20    20    21   ar
    21    21    22   ar
    22    22    23   ar
    23    23    24    1
    24    23    25   ar
    25    25    26   ar
    26    14     2   am
    27    26    20   ar
    28    11     3   ar
    29    10     5   ar
@<TRIPOS>MOLECULE
*****
 26 29 0 0 0
SMALL
GASTEIGER

@<TRIPOS>ATOM
      1 O         142.2609  139.2610  163.4636 O.2     1  UNL1       -0.2666
      2 C         141.3208  139.2758  164.6324 C.2     1  UNL1        0.2837
      3 C         141.6730  140.0491  165.8685 C.ar    1  UNL1        0.1985
      4 N         142.8664  140.8858  166.2230 N.ar    1  UNL1       -0.2227
      5 C         142.6640  141.4176  167.6109 C.ar    1  UNL1        0.0988
      6 C         143.5099  142.2987  168.4814 C.ar    1  UNL1        0.0206
      7 C         143.0372  142.6720  169.8552 C.ar    1  UNL1        0.0016
      8 C         141.7186  142.1640  170.3584 C.ar    1  UNL1        0.0054
      9 C         140.8726  141.2829  169.4879 C.ar    1  UNL1        0.0887
     10 C         141.3453  140.9097  168.1141 C.ar    1  UNL1        0.0829
     11 N         140.7329  140.0639  167.0372 N.ar    1  UNL1       -0.3061
     12 C         139.4406  139.3053  166.9699 C.3     1  UNL1        0.1291
     13 C         139.0885  138.5320  165.7338 C.3     1  UNL1        0.1186
     14 N         140.0285  138.5172  164.5650 N.am    1  UNL1       -0.2675
     15 C         139.5540  140.7749  169.9911 C.3     1  UNL1        0.4200
     16 F         138.2354  140.2670  170.4943 F       1  UNL1       -0.1658
     17 F         138.9610  142.1416  169.8165 F       1  UNL1       -0.1658
     18 F         140.1471  139.4083  170.1656 F       1  UNL1       -0.1658
     19 C         139.6764  137.7438  163.3289 C.3     1  UNL1        0.1206
     20 C         139.2046  138.4656  162.1016 C.ar    1  UNL1       -0.0023
     21 C         137.9376  139.2674  162.1436 C.ar    1  UNL1       -0.0017
     22 C         137.4658  139.9893  160.9162 C.ar    1  UNL1        0.0111
     23 C         138.2611  139.9094  159.6468 C.ar    1  UNL1        0.0577
     24 CL        137.7894  140.6312  158.4195 Cl      1  UNL1       -0.0822
     25 C         139.5282  139.1075  159.6049 C.ar    1  UNL1        0.0111
     26 C         139.9999  138.3857  160.8323 C.ar    1  UNL1       -0.0017
@<TRIPOS>BOND
     1     1     2    2
     2     2     3    1
     3     3     4   ar
     4     4     5   ar
     5     5     6   ar
     6     6     7   ar
     7     7     8   ar
     8     8     9   ar
     9     9    15    1
    10    15    16    1
    11    15    17    1
    12    15    18    1
    13     9    10   ar
    14    10    11   ar
    15    11    12    1
    16    12    13    1
    17    13    14    1
    18    14    19    1
    19    19    20    1
    20    20    21   ar
    21    21    22   ar
    22    22    23   ar
    23    23    24    1
    24    23    25   ar
    25    25    26   ar
    26    14     2   am
    27    26    20   ar
    28    11     3   ar
    29    10     5   ar
@<TRIPOS>MOLECULE
*****
 26 29 0 0 0
SMALL
GASTEIGER

@<TRIPOS>ATOM
      1 O         141.1370  140.8129  163.0613 O.2     1  UNL1       -0.2666
      2 C         141.8812  141.3644  164.2411 C.2     1  UNL1        0.2837
      3 C         141.3557  141.1450  165.6288 C.ar    1  UNL1        0.1985
      4 N         140.1400  140.4307  166.1404 N.ar    1  UNL1       -0.2227
      5 C         140.1329  140.5408  167.6363 C.ar    1  UNL1        0.0988
      6 C         139.1799  140.0297  168.6758 C.ar    1  UNL1        0.0206
      7 C         139.4383  140.3010  170.1282 C.ar    1  UNL1        0.0016
      8 C         140.6496  141.0834  170.5412 C.ar    1  UNL1        0.0054
      9 C         141.6026  141.5945  169.5017 C.ar    1  UNL1        0.0887
     10 C         141.3443  141.3231  168.0493 C.ar    1  UNL1        0.0829
     11 N         142.1000  141.6966  166.8085 N.ar    1  UNL1       -0.3061
     12 C         143.3697  142.4676  166.6006 C.3     1  UNL1        0.1291
     13 C         143.8952  142.6871  165.2129 C.3     1  UNL1        0.1186
     14 N         143.1509  142.1355  164.0331 N.am    1  UNL1       -0.2675
     15 C         142.8140  142.3768  169.9146 C.3     1  UNL1        0.4200
     16 F         144.0253  143.1592  170.3276 F       1  UNL1       -0.1658
     17 F         143.6462  141.1316  169.8326 F       1  UNL1       -0.1658
     18 F         141.9817  143.6221  169.9967 F       1  UNL1       -0.1658
     19 C         143.6764  142.3550  162.6454 C.3     1  UNL1        0.1206
     20 C         142.8885  143.1730  161.6657 C.ar    1  UNL1       -0.0023
     21 C         143.0547  142.9441  160.1926 C.ar    1  UNL1       -0.0017
     22 C         142.2667  143.7622  159.2128 C.ar    1  UNL1        0.0111
     23 C         141.3125  144.8092  159.7062 C.ar    1  UNL1        0.0577
     24 CL        140.5245  145.6272  158.7265 Cl      1  UNL1       -0.0822
     25 C         141.1463  145.0381  161.1794 C.ar    1  UNL1        0.0111
     26 C         141.9343  144.2200  162.1591 C.ar    1  UNL1       -0.0017
@<TRIPOS>BOND
     1     1     2    2
     2     2     3    1
     3     3     4   ar
     4     4     5   ar
     5     5     6   ar
     6     6     7   ar
     7     7     8   ar
     8     8     9   ar
     9     9    15    1
    10    15    16    1
    11    15    17    1
    12    15    18    1
    13     9    10   ar
    14    10    11   ar
    15    11    12    1
    16    12    13    1
    17    13    14    1
    18    14    19    1
    19    19    20    1
    20    20    21   ar
    21    21    22   ar
    22    22    23   ar
    23    23    24    1
    24    23    25   ar
    25    25    26   ar
    26    14     2   am
    27    26    20   ar
    28    11     3   ar
    29    10     5   ar
@<TRIPOS>MOLECULE
*****
 26 29 0 0 0
SMALL
GASTEIGER

@<TRIPOS>ATOM
      1 O         143.3924  143.6252  159.7361 O.2     1  UNL1       -0.2666
      2 C         142.1601  143.9901  160.5095 C.2     1  UNL1        0.2837
      3 C         141.9477  143.4361  161.8871 C.ar    1  UNL1        0.1985
      4 N         142.7719  142.5145  162.7364 N.ar    1  UNL1       -0.2227
      5 C         142.0490  142.3098  164.0347 C.ar    1  UNL1        0.0988
      6 C         142.3838  141.5022  165.2535 C.ar    1  UNL1        0.0206
      7 C         141.4477  141.4897  166.4254 C.ar    1  UNL1        0.0016
      8 C         140.1766  142.2849  166.3785 C.ar    1  UNL1        0.0054
      9 C         139.8417  143.0925  165.1597 C.ar    1  UNL1        0.0887
     10 C         140.7779  143.1050  163.9878 C.ar    1  UNL1        0.0829
     11 N         140.7153  143.8010  162.6605 N.ar    1  UNL1       -0.3061
     12 C         139.6954  144.7200  162.0562 C.3     1  UNL1        0.1291
     13 C         139.9078  145.2740  160.6785 C.3     1  UNL1        0.1186
     14 N         141.1402  144.9090  159.9052 N.am    1  UNL1       -0.2675
     15 C         138.5707  143.8876  165.1127 C.3     1  UNL1        0.4200
     16 F         137.2996  144.6827  165.0658 F       1  UNL1       -0.1658
     17 F         139.3491  145.1463  165.3570 F       1  UNL1       -0.1658
     18 F         137.7923  142.6289  164.8685 F       1  UNL1       -0.1658
     19 C         141.3526  145.4631  158.5275 C.3     1  UNL1        0.1206
     20 C         140.2992  145.2809  157.4752 C.ar    1  UNL1       -0.0023
     21 C         139.7033  143.9250  157.2375 C.ar    1  UNL1       -0.0017
     22 C         138.6499  143.7428  156.1852 C.ar    1  UNL1        0.0111
     23 C         138.1926  144.9164  155.3706 C.ar    1  UNL1        0.0577
     24 CL        137.1392  144.7342  154.3183 Cl      1  UNL1       -0.0822
     25 C         138.7886  146.2723  155.6084 C.ar    1  UNL1        0.0111
     26 C         139.8419  146.4545  156.6606 C.ar    1  UNL1       -0.0017
@<TRIPOS>BOND
     1     1     2    2
     2     2     3    1
     3     3     4   ar
     4     4     5   ar
     5     5     6   ar
     6     6     7   ar
     7     7     8   ar
     8     8     9   ar
     9     9    15    1
    10    15    16    1
    11    15    17    1
    12    15    18    1
    13     9    10   ar
    14    10    11   ar
    15    11    12    1
    16    12    13    1
    17    13    14    1
    18    14    19    1
    19    19    20    1
    20    20    21   ar
    21    21    22   ar
    22    22    23   ar
    23    23    24    1
    24    23    25   ar
    25    25    26   ar
    26    14     2   am
    27    26    20   ar
    28    11     3   ar
    29    10     5   ar
@<TRIPOS>MOLECULE
*****
 26 29 0 0 0
SMALL
GASTEIGER

@<TRIPOS>ATOM
      1 O         139.3091  138.5960  158.1018 O.2     1  UNL1       -0.2666
      2 C         138.9815  139.7071  159.0547 C.2     1  UNL1        0.2837
      3 C         138.8850  139.4297  160.5257 C.ar    1  UNL1        0.1985
      4 N         139.0601  138.1716  161.3234 N.ar    1  UNL1       -0.2227
      5 C         138.8407  138.5052  162.7693 C.ar    1  UNL1        0.0988
      6 C         138.8838  137.6647  164.0110 C.ar    1  UNL1        0.0206
      7 C         138.6161  138.2886  165.3485 C.ar    1  UNL1        0.0016
      8 C         138.3054  139.7530  165.4444 C.ar    1  UNL1        0.0054
      9 C         138.2623  140.5934  164.2027 C.ar    1  UNL1        0.0887
     10 C         138.5300  139.9695  162.8652 C.ar    1  UNL1        0.0829
     11 N         138.5573  140.5409  161.4786 N.ar    1  UNL1       -0.3061
     12 C         138.3262  141.9294  160.9605 C.3     1  UNL1        0.1291
     13 C         138.4228  142.2068  159.4895 C.3     1  UNL1        0.1186
     14 N         138.7504  141.0957  158.5366 N.am    1  UNL1       -0.2675
     15 C         137.9516  142.0577  164.2986 C.3     1  UNL1        0.4200
     16 F         137.6409  143.5221  164.3945 F       1  UNL1       -0.1658
     17 F         139.2449  142.2847  165.0238 F       1  UNL1       -0.1658
     18 F         136.6583  141.8308  163.5735 F       1  UNL1       -0.1658
     19 C         138.8469  141.3731  157.0656 C.3     1  UNL1        0.1206
     20 C         137.6059  141.3937  156.2233 C.ar    1  UNL1       -0.0023
     21 C         137.6357  142.0168  154.8592 C.ar    1  UNL1       -0.0017
     22 C         136.3947  142.0374  154.0167 C.ar    1  UNL1        0.0111
     23 C         135.1239  141.4349  154.5385 C.ar    1  UNL1        0.0577
     24 CL        133.8830  141.4554  153.6962 Cl      1  UNL1       -0.0822
     25 C         135.0942  140.8117  155.9027 C.ar    1  UNL1        0.0111
     26 C         136.3352  140.7911  156.7450 C.ar    1  UNL1       -0.0017
@<TRIPOS>BOND
     1     1     2    2
     2     2     3    1
     3     3     4   ar
     4     4     5   ar
     5     5     6   ar
     6     6     7   ar
     7     7     8   ar
     8     8     9   ar
     9     9    15    1
    10    15    16    1
    11    15    17    1
    12    15    18    1
    13     9    10   ar
    14    10    11   ar
    15    11    12    1
    16    12    13    1
    17    13    14    1
    18    14    19    1
    19    19    20    1
    20    20    21   ar
    21    21    22   ar
    22    22    23   ar
    23    23    24    1
    24    23    25   ar
    25    25    26   ar
    26    14     2   am
    27    26    20   ar
    28    11     3   ar
    29    10     5   ar
@<TRIPOS>MOLECULE
*****
 26 29 0 0 0
SMALL
GASTEIGER

@<TRIPOS>ATOM
      1 O         143.7520  144.0168  163.5243 O.2     1  UNL1       -0.2666
      2 C         142.8218  142.8452  163.4153 C.2     1  UNL1        0.2837
      3 C         142.1137  142.3338  164.6348 C.ar    1  UNL1        0.1985
      4 N         142.1343  142.7775  166.0675 N.ar    1  UNL1       -0.2227
      5 C         141.2168  141.8802  166.8440 C.ar    1  UNL1        0.0988
      6 C         140.8405  141.8431  168.2955 C.ar    1  UNL1        0.0206
      7 C         139.8766  140.8078  168.7942 C.ar    1  UNL1        0.0016
      8 C         139.2889  139.8094  167.8414 C.ar    1  UNL1        0.0054
      9 C         139.6651  139.8464  166.3899 C.ar    1  UNL1        0.0887
     10 C         140.6291  140.8818  165.8911 C.ar    1  UNL1        0.0829
     11 N         141.1834  141.1622  164.5258 N.ar    1  UNL1       -0.3061
     12 C         140.9612  140.5019  163.1974 C.3     1  UNL1        0.1291
     13 C         141.6693  141.0134  161.9779 C.3     1  UNL1        0.1186
     14 N         142.5996  142.1850  162.0869 N.am    1  UNL1       -0.2675
     15 C         139.0774  138.8480  165.4370 C.3     1  UNL1        0.4200
     16 F         138.4897  137.8497  164.4842 F       1  UNL1       -0.1658
     17 F         140.3712  138.0890  165.4344 F       1  UNL1       -0.1658
     18 F         137.7837  139.6071  165.4396 F       1  UNL1       -0.1658
     19 C         143.3077  142.6964  160.8674 C.3     1  UNL1        0.1206
     20 C         142.5856  143.5846  159.8981 C.ar    1  UNL1       -0.0023
     21 C         141.4472  144.4400  160.3694 C.ar    1  UNL1       -0.0017
     22 C         140.7250  145.3283  159.4000 C.ar    1  UNL1        0.0111
     23 C         141.1414  145.3611  157.9593 C.ar    1  UNL1        0.0577
     24 CL        140.4193  146.2493  156.9900 Cl      1  UNL1       -0.0822
     25 C         142.2800  144.5056  157.4880 C.ar    1  UNL1        0.0111
     26 C         143.0020  143.6174  158.4574 C.ar    1  UNL1       -0.0017
@<TRIPOS>BOND
     1     1     2    2
     2     2     3    1
     3     3     4   ar
     4     4     5   ar
     5     5     6   ar
     6     6     7   ar
     7     7     8   ar
     8     8     9   ar
     9     9    15    1
    10    15    16    1
    11    15    17    1
    12    15    18    1
    13     9    10   ar
    14    10    11   ar
    15    11    12    1
    16    12    13    1
    17    13    14    1
    18    14    19    1
    19    19    20    1
    20    20    21   ar
    21    21    22   ar
    22    22    23   ar
    23    23    24    1
    24    23    25   ar
    25    25    26   ar
    26    14     2   am
    27    26    20   ar
    28    11     3   ar
    29    10     5   ar
@<TRIPOS>MOLECULE
*****
 26 29 0 0 0
SMALL
GASTEIGER

@<TRIPOS>ATOM
      1 O         139.6760  145.0659  164.1959 O.2     1  UNL1       -0.2666
      2 C         140.5810  144.1082  163.4792 C.2     1  UNL1        0.2837
      3 C         140.9241  144.3369  162.0370 C.ar    1  UNL1        0.1985
      4 N         140.5243  145.4100  161.0681 N.ar    1  UNL1       -0.2227
      5 C         141.1822  145.1154  159.7527 C.ar    1  UNL1        0.0988
      6 C         141.1511  145.8279  158.4331 C.ar    1  UNL1        0.0206
      7 C         141.9265  145.2853  157.2694 C.ar    1  UNL1        0.0016
      8 C         142.7330  144.0302  157.4253 C.ar    1  UNL1        0.0054
      9 C         142.7641  143.3177  158.7448 C.ar    1  UNL1        0.0887
     10 C         141.9887  143.8603  159.9086 C.ar    1  UNL1        0.0829
     11 N         141.8292  143.3792  161.3203 N.ar    1  UNL1       -0.3061
     12 C         142.3911  142.1927  162.0459 C.3     1  UNL1        0.1291
     13 C         142.0481  141.9640  163.4881 C.3     1  UNL1        0.1186
     14 N         141.1430  142.9217  164.2048 N.am    1  UNL1       -0.2675
     15 C         143.5706  142.0626  158.9007 C.3     1  UNL1        0.4200
     16 F         144.3771  140.8075  159.0566 F       1  UNL1       -0.1658
     17 F         144.7541  142.8767  159.3326 F       1  UNL1       -0.1658
     18 F         142.3871  141.2485  158.4688 F       1  UNL1       -0.1658
     19 C         140.7999  142.6930  165.6470 C.3     1  UNL1        0.1206
     20 C         139.9424  141.5261  166.0380 C.ar    1  UNL1       -0.0023
     21 C         138.9868  140.9320  165.0461 C.ar    1  UNL1       -0.0017
     22 C         138.1292  139.7650  165.4371 C.ar    1  UNL1        0.0111
     23 C         138.2272  139.1922  166.8200 C.ar    1  UNL1        0.0577
     24 CL        137.3697  138.0253  167.2110 Cl      1  UNL1       -0.0822
     25 C         139.1829  139.7864  167.8119 C.ar    1  UNL1        0.0111
     26 C         140.0405  140.9533  167.4209 C.ar    1  UNL1       -0.0017
@<TRIPOS>BOND
     1     1     2    2
     2     2     3    1
     3     3     4   ar
     4     4     5   ar
     5     5     6   ar
     6     6     7   ar
     7     7     8   ar
     8     8     9   ar
     9     9    15    1
    10    15    16    1
    11    15    17    1
    12    15    18    1
    13     9    10   ar
    14    10    11   ar
    15    11    12    1
    16    12    13    1
    17    13    14    1
    18    14    19    1
    19    19    20    1
    20    20    21   ar
    21    21    22   ar
    22    22    23   ar
    23    23    24    1
    24    23    25   ar
    25    25    26   ar
    26    14     2   am
    27    26    20   ar
    28    11     3   ar
    29    10     5   ar
