@<TRIPOS>MOLECULE
*****
 33 36 0 0 0
SMALL
GASTEIGER

@<TRIPOS>ATOM
      1 N         138.5333  137.6750  161.3283 N.pl3   1  UNL1       -0.3287
      2 C         139.7985  138.2698  161.8718 C.ar    1  UNL1        0.1959
      3 N         141.0973  137.5468  162.0730 N.ar    1  UNL1       -0.2123
      4 C         142.0886  138.5222  162.6351 C.ar    1  UNL1        0.1184
      5 C         143.5273  138.3744  163.0327 C.ar    1  UNL1        0.0271
      6 C         144.2799  139.5524  163.5766 C.ar    1  UNL1        0.0594
      7 C         143.5938  140.8782  163.7229 C.ar    1  UNL1        0.2262
      8 N         142.1551  141.0260  163.3253 N.ar    1  UNL1       -0.1926
      9 C         141.4025  139.8480  162.7814 C.ar    1  UNL1        0.1668
     10 N         139.9871  139.6920  162.3097 N.ar    1  UNL1       -0.2824
     11 H         138.5081  136.7262  161.0667 H       1  UNL1        0.1451
     12 H         137.7281  138.2334  161.2330 H       1  UNL1        0.1451
     13 O         144.3465  142.0562  164.2668 O.3     1  UNL1       -0.4611
     14 C         144.1665  143.4113  163.6493 C.3     1  UNL1        0.1988
     15 C         143.8387  144.7792  164.1702 C.3     1  UNL1        0.1143
     16 N         143.9121  145.3277  162.7760 N.3     1  UNL1       -0.2914
     17 C         144.2399  143.9598  162.2551 C.3     1  UNL1        0.1143
     18 H         144.6531  146.0148  162.6373 H       1  UNL1        0.1235
     19 C         138.9436  140.7691  162.2808 C.3     1  UNL1        0.1438
     20 C         138.0269  140.9569  163.4531 C.3     1  UNL1        0.1561
     21 O         136.6069  141.3876  163.2333 O.3     1  UNL1       -0.3780
     22 H         136.1552  141.4610  164.0886 H       1  UNL1        0.2109
     23 C         138.5300  140.7140  164.8452 C.ar    1  UNL1        0.0167
     24 C         138.1950  139.4335  165.5509 C.ar    1  UNL1       -0.0011
     25 C         138.6980  139.1905  166.9430 C.ar    1  UNL1        0.0037
     26 C         139.5361  140.2281  167.6294 C.ar    1  UNL1        0.0722
     27 C         139.8711  141.5086  166.9236 C.ar    1  UNL1        0.0150
     28 C         139.3680  141.7515  165.5315 C.ar    1  UNL1        0.0559
     29 CL        139.7030  143.0320  164.8258 Cl      1  UNL1       -0.0825
     30 C         140.0392  139.9853  169.0215 C.3     1  UNL1        0.4186
     31 F         140.5422  139.7425  170.4136 F       1  UNL1       -0.1659
     32 F         138.6880  140.3354  169.5708 F       1  UNL1       -0.1659
     33 F         141.3903  139.6352  168.4721 F       1  UNL1       -0.1659
@<TRIPOS>BOND
     1     1     2    1
     2     2     3   ar
     3     3     4   ar
     4     4     5   ar
     5     5     6   ar
     6     6     7   ar
     7     7    13    1
     8    13    14    1
     9    14    15    1
    10    15    16    1
    11    16    17    1
    12     7     8   ar
    13     8     9   ar
    14     9    10   ar
    15    10    19    1
    16    19    20    1
    17    20    21    1
    18    20    23    1
    19    23    24   ar
    20    24    25   ar
    21    25    26   ar
    22    26    30    1
    23    30    31    1
    24    30    32    1
    25    30    33    1
    26    26    27   ar
    27    27    28   ar
    28    28    29    1
    29    10     2   ar
    30    28    23   ar
    31     9     4   ar
    32    17    14    1
    33     1    11    1
    34     1    12    1
    35    16    18    1
    36    21    22    1
@<TRIPOS>MOLECULE
*****
 33 36 0 0 0
SMALL
GASTEIGER

@<TRIPOS>ATOM
      1 N         140.3603  146.2911  162.4502 N.pl3   1  UNL1       -0.3287
      2 C         141.2509  145.1589  162.8685 C.ar    1  UNL1        0.1959
      3 N         142.4136  145.2537  163.8114 N.ar    1  UNL1       -0.2123
      4 C         143.0165  143.8865  163.9429 C.ar    1  UNL1        0.1184
      5 C         144.1828  143.3759  164.7360 C.ar    1  UNL1        0.0271
      6 C         144.5590  141.9255  164.6674 C.ar    1  UNL1        0.0594
      7 C         143.7689  140.9857  163.8058 C.ar    1  UNL1        0.2262
      8 N         142.6025  141.4963  163.0127 N.ar    1  UNL1       -0.1926
      9 C         142.2264  142.9467  163.0813 C.ar    1  UNL1        0.1668
     10 N         141.1352  143.7331  162.4173 N.ar    1  UNL1       -0.2824
     11 H         140.5172  147.1969  162.8027 H       1  UNL1        0.1451
     12 H         139.6189  146.1285  161.8232 H       1  UNL1        0.1451
     13 O         144.1451  139.5352  163.7372 O.3     1  UNL1       -0.4611
     14 C         143.3252  138.5858  162.9149 C.3     1  UNL1        0.1988
     15 C         142.0170  137.8764  163.1037 C.3     1  UNL1        0.1143
     16 N         142.1655  137.2430  161.7521 N.3     1  UNL1       -0.2914
     17 C         143.4737  137.9524  161.5634 C.3     1  UNL1        0.1143
     18 H         141.4445  137.5143  161.0836 H       1  UNL1        0.1235
     19 C         140.1085  143.1891  161.4686 C.3     1  UNL1        0.1438
     20 C         138.7626  142.7687  161.9802 C.3     1  UNL1        0.1561
     21 O         137.5324  143.5147  161.5558 O.3     1  UNL1       -0.3780
     22 H         136.7527  143.1170  161.9739 H       1  UNL1        0.2109
     23 C         138.6468  141.6024  162.9163 C.ar    1  UNL1        0.0167
     24 C         138.6119  140.2049  162.3726 C.ar    1  UNL1       -0.0011
     25 C         138.4961  139.0385  163.3087 C.ar    1  UNL1        0.0037
     26 C         138.4152  139.2698  164.7885 C.ar    1  UNL1        0.0722
     27 C         138.4501  140.6673  165.3323 C.ar    1  UNL1        0.0150
     28 C         138.5659  141.8336  164.3962 C.ar    1  UNL1        0.0559
     29 CL        138.6009  143.2311  164.9399 Cl      1  UNL1       -0.0825
     30 C         138.2994  138.1035  165.7247 C.3     1  UNL1        0.4186
     31 F         138.1835  136.9373  166.6610 F       1  UNL1       -0.1659
     32 F         137.4575  138.9305  166.6507 F       1  UNL1       -0.1659
     33 F         139.1412  137.2766  164.7987 F       1  UNL1       -0.1659
@<TRIPOS>BOND
     1     1     2    1
     2     2     3   ar
     3     3     4   ar
     4     4     5   ar
     5     5     6   ar
     6     6     7   ar
     7     7    13    1
     8    13    14    1
     9    14    15    1
    10    15    16    1
    11    16    17    1
    12     7     8   ar
    13     8     9   ar
    14     9    10   ar
    15    10    19    1
    16    19    20    1
    17    20    21    1
    18    20    23    1
    19    23    24   ar
    20    24    25   ar
    21    25    26   ar
    22    26    30    1
    23    30    31    1
    24    30    32    1
    25    30    33    1
    26    26    27   ar
    27    27    28   ar
    28    28    29    1
    29    10     2   ar
    30    28    23   ar
    31     9     4   ar
    32    17    14    1
    33     1    11    1
    34     1    12    1
    35    16    18    1
    36    21    22    1
@<TRIPOS>MOLECULE
*****
 33 36 0 0 0
SMALL
GASTEIGER

@<TRIPOS>ATOM
      1 N         144.5284  138.2612  161.6254 N.pl3   1  UNL1       -0.3287
      2 C         144.0930  139.6032  162.1347 C.ar    1  UNL1        0.1959
      3 N         144.9867  140.7788  162.3978 N.ar    1  UNL1       -0.2123
      4 C         144.1334  141.9074  162.8961 C.ar    1  UNL1        0.1184
      5 C         144.4669  143.3087  163.3147 C.ar    1  UNL1        0.0271
      6 C         143.3793  144.2318  163.7782 C.ar    1  UNL1        0.0594
      7 C         141.9582  143.7537  163.8230 C.ar    1  UNL1        0.2262
      8 N         141.6248  142.3525  163.4044 N.ar    1  UNL1       -0.1926
      9 C         142.7124  141.4293  162.9409 C.ar    1  UNL1        0.1668
     10 N         142.6874  140.0052  162.4704 N.ar    1  UNL1       -0.2824
     11 H         145.4790  138.0925  161.4328 H       1  UNL1        0.1451
     12 H         143.8635  137.5490  161.4838 H       1  UNL1        0.1451
     13 O         140.8706  144.6769  164.2866 O.3     1  UNL1       -0.4611
     14 C         139.5146  144.6188  163.6479 C.3     1  UNL1        0.1988
     15 C         138.9248  145.1209  162.3634 C.3     1  UNL1        0.1143
     16 N         137.5970  144.5365  162.7446 N.3     1  UNL1       -0.2914
     17 C         138.1868  144.0343  164.0291 C.3     1  UNL1        0.1143
     18 H         137.2716  143.7991  162.1195 H       1  UNL1        0.1235
     19 C         141.4704  139.1359  162.3557 C.3     1  UNL1        0.1438
     20 C         141.1251  138.1796  163.4585 C.3     1  UNL1        0.1561
     21 O         141.2432  136.7012  163.2337 O.3     1  UNL1       -0.3780
     22 H         140.9839  136.2297  164.0408 H       1  UNL1        0.2109
     23 C         140.6617  138.7016  164.7862 C.ar    1  UNL1        0.0167
     24 C         139.1963  138.8804  165.0518 C.ar    1  UNL1       -0.0011
     25 C         138.7329  139.4024  166.3795 C.ar    1  UNL1        0.0037
     26 C         139.7349  139.7456  167.4416 C.ar    1  UNL1        0.0722
     27 C         141.2003  139.5668  167.1761 C.ar    1  UNL1        0.0150
     28 C         141.6637  139.0448  165.8483 C.ar    1  UNL1        0.0559
     29 CL        143.1292  138.8660  165.5828 Cl      1  UNL1       -0.0825
     30 C         139.2716  140.2676  168.7694 C.3     1  UNL1        0.4186
     31 F         138.8082  140.7895  170.0971 F       1  UNL1       -0.1659
     32 F         138.0240  139.4422  168.6584 F       1  UNL1       -0.1659
     33 F         140.5192  141.0928  168.8803 F       1  UNL1       -0.1659
@<TRIPOS>BOND
     1     1     2    1
     2     2     3   ar
     3     3     4   ar
     4     4     5   ar
     5     5     6   ar
     6     6     7   ar
     7     7    13    1
     8    13    14    1
     9    14    15    1
    10    15    16    1
    11    16    17    1
    12     7     8   ar
    13     8     9   ar
    14     9    10   ar
    15    10    19    1
    16    19    20    1
    17    20    21    1
    18    20    23    1
    19    23    24   ar
    20    24    25   ar
    21    25    26   ar
    22    26    30    1
    23    30    31    1
    24    30    32    1
    25    30    33    1
    26    26    27   ar
    27    27    28   ar
    28    28    29    1
    29    10     2   ar
    30    28    23   ar
    31     9     4   ar
    32    17    14    1
    33     1    11    1
    34     1    12    1
    35    16    18    1
    36    21    22    1
@<TRIPOS>MOLECULE
*****
 33 36 0 0 0
SMALL
GASTEIGER

@<TRIPOS>ATOM
      1 N         143.9435  145.3903  162.7990 N.pl3   1  UNL1       -0.3287
      2 C         142.6020  144.7467  162.9891 C.ar    1  UNL1        0.1959
      3 N         141.3053  145.4635  163.2230 N.ar    1  UNL1       -0.2123
      4 C         140.2236  144.4330  163.3571 C.ar    1  UNL1        0.1184
      5 C         138.7478  144.5524  163.5973 C.ar    1  UNL1        0.0271
      6 C         137.9001  143.3181  163.6863 C.ar    1  UNL1        0.0594
      7 C         138.5283  141.9644  163.5352 C.ar    1  UNL1        0.2262
      8 N         140.0041  141.8450  163.2951 N.ar    1  UNL1       -0.1926
      9 C         140.8517  143.0793  163.2060 C.ar    1  UNL1        0.1668
     10 N         142.3217  143.2731  162.9786 N.ar    1  UNL1       -0.2824
     11 H         144.0267  146.3710  162.8226 H       1  UNL1        0.1451
     12 H         144.7408  144.8321  162.6508 H       1  UNL1        0.1451
     13 O         137.6806  140.7301  163.6242 O.3     1  UNL1       -0.4611
     14 C         138.0709  139.4959  162.8664 C.3     1  UNL1        0.1988
     15 C         138.9216  138.2958  163.1598 C.3     1  UNL1        0.1143
     16 N         138.6229  137.7504  161.7947 N.3     1  UNL1       -0.2914
     17 C         137.7722  138.9505  161.5014 C.3     1  UNL1        0.1143
     18 H         138.1106  136.8684  161.8016 H       1  UNL1        0.1235
     19 C         143.3336  142.1845  162.7761 C.3     1  UNL1        0.1438
     20 C         144.2238  141.7679  163.9091 C.3     1  UNL1        0.1561
     21 O         145.7140  141.8646  163.7668 O.3     1  UNL1       -0.3780
     22 H         146.1374  141.5581  164.5839 H       1  UNL1        0.2109
     23 C         143.6241  141.2544  165.1845 C.ar    1  UNL1        0.0167
     24 C         143.2644  142.2110  166.2826 C.ar    1  UNL1       -0.0011
     25 C         142.6646  141.6975  167.5580 C.ar    1  UNL1        0.0037
     26 C         142.4246  140.2275  167.7354 C.ar    1  UNL1        0.0722
     27 C         142.7842  139.2710  166.6373 C.ar    1  UNL1        0.0150
     28 C         143.3840  139.7844  165.3619 C.ar    1  UNL1        0.0559
     29 CL        143.7437  138.8279  164.2639 Cl      1  UNL1       -0.0825
     30 C         141.8248  139.7140  169.0108 C.3     1  UNL1        0.4186
     31 F         141.2251  139.2003  170.2862 F       1  UNL1       -0.1659
     32 F         142.8483  138.6181  169.0507 F       1  UNL1       -0.1659
     33 F         140.8014  140.8098  168.9708 F       1  UNL1       -0.1659
@<TRIPOS>BOND
     1     1     2    1
     2     2     3   ar
     3     3     4   ar
     4     4     5   ar
     5     5     6   ar
     6     6     7   ar
     7     7    13    1
     8    13    14    1
     9    14    15    1
    10    15    16    1
    11    16    17    1
    12     7     8   ar
    13     8     9   ar
    14     9    10   ar
    15    10    19    1
    16    19    20    1
    17    20    21    1
    18    20    23    1
    19    23    24   ar
    20    24    25   ar
    21    25    26   ar
    22    26    30    1
    23    30    31    1
    24    30    32    1
    25    30    33    1
    26    26    27   ar
    27    27    28   ar
    28    28    29    1
    29    10     2   ar
    30    28    23   ar
    31     9     4   ar
    32    17    14    1
    33     1    11    1
    34     1    12    1
    35    16    18    1
    36    21    22    1
@<TRIPOS>MOLECULE
*****
 33 36 0 0 0
SMALL
GASTEIGER

@<TRIPOS>ATOM
      1 N         144.3155  138.0425  161.6434 N.pl3   1  UNL1       -0.3287
      2 C         143.3497  138.4761  162.7060 C.ar    1  UNL1        0.1959
      3 N         141.9264  138.0228  162.8420 N.ar    1  UNL1       -0.2123
      4 C         141.3347  138.7057  164.0393 C.ar    1  UNL1        0.1184
      5 C         139.9695  138.6436  164.6575 C.ar    1  UNL1        0.0271
      6 C         139.6620  139.4568  165.8798 C.ar    1  UNL1        0.0594
      7 C         140.7197  140.3321  166.4839 C.ar    1  UNL1        0.2262
      8 N         142.0849  140.3943  165.8657 N.ar    1  UNL1       -0.1926
      9 C         142.3924  139.5811  164.6434 C.ar    1  UNL1        0.1668
     10 N         143.6378  139.4392  163.8194 N.ar    1  UNL1       -0.2824
     11 H         144.0312  137.4026  160.9513 H       1  UNL1        0.1451
     12 H         145.2337  138.3978  161.6380 H       1  UNL1        0.1451
     13 O         140.4122  141.1454  167.7063 O.3     1  UNL1       -0.4611
     14 C         140.2915  140.4746  169.0425 C.3     1  UNL1        0.1988
     15 C         141.2070  139.6587  169.9062 C.3     1  UNL1        0.1143
     16 N         140.1209  139.5261  170.9323 N.3     1  UNL1       -0.2914
     17 C         139.2054  140.3421  170.0686 C.3     1  UNL1        0.1143
     18 H         140.3410  139.9577  171.8299 H       1  UNL1        0.1235
     19 C         144.9422  140.1377  164.0656 C.3     1  UNL1        0.1438
     20 C         145.2212  141.4580  163.4108 C.3     1  UNL1        0.1561
     21 O         146.6186  141.8068  162.9914 O.3     1  UNL1       -0.3780
     22 H         146.6243  142.6888  162.5877 H       1  UNL1        0.2109
     23 C         144.1029  142.4297  163.1753 C.ar    1  UNL1        0.0167
     24 C         143.3896  142.4468  161.8559 C.ar    1  UNL1       -0.0011
     25 C         142.2714  143.4185  161.6205 C.ar    1  UNL1        0.0037
     26 C         141.8665  144.3730  162.7044 C.ar    1  UNL1        0.0722
     27 C         142.5798  144.3559  164.0238 C.ar    1  UNL1        0.0150
     28 C         143.6980  143.3842  164.2593 C.ar    1  UNL1        0.0559
     29 CL        144.4114  143.3671  165.5787 Cl      1  UNL1       -0.0825
     30 C         140.7482  145.3447  162.4690 C.3     1  UNL1        0.4186
     31 F         139.6300  146.3164  162.2335 F       1  UNL1       -0.1659
     32 F         141.1150  145.4148  161.0162 F       1  UNL1       -0.1659
     33 F         140.3815  145.2746  163.9217 F       1  UNL1       -0.1659
@<TRIPOS>BOND
     1     1     2    1
     2     2     3   ar
     3     3     4   ar
     4     4     5   ar
     5     5     6   ar
     6     6     7   ar
     7     7    13    1
     8    13    14    1
     9    14    15    1
    10    15    16    1
    11    16    17    1
    12     7     8   ar
    13     8     9   ar
    14     9    10   ar
    15    10    19    1
    16    19    20    1
    17    20    21    1
    18    20    23    1
    19    23    24   ar
    20    24    25   ar
    21    25    26   ar
    22    26    30    1
    23    30    31    1
    24    30    32    1
    25    30    33    1
    26    26    27   ar
    27    27    28   ar
    28    28    29    1
    29    10     2   ar
    30    28    23   ar
    31     9     4   ar
    32    17    14    1
    33     1    11    1
    34     1    12    1
    35    16    18    1
    36    21    22    1
@<TRIPOS>MOLECULE
*****
 33 36 0 0 0
SMALL
GASTEIGER

@<TRIPOS>ATOM
      1 N         137.9637  143.0509  160.8805 N.pl3   1  UNL1       -0.3287
      2 C         138.1095  142.0572  161.9947 C.ar    1  UNL1        0.1959
      3 N         138.3679  140.5880  161.8377 N.ar    1  UNL1       -0.2123
      4 C         138.4406  139.9811  163.2075 C.ar    1  UNL1        0.1184
      5 C         138.6736  138.5735  163.6705 C.ar    1  UNL1        0.0271
      6 C         138.6931  138.2601  165.1372 C.ar    1  UNL1        0.0594
      7 C         138.4796  139.3542  166.1409 C.ar    1  UNL1        0.2262
      8 N         138.2466  140.7617  165.6779 N.ar    1  UNL1       -0.1926
      9 C         138.2271  141.0752  164.2111 C.ar    1  UNL1        0.1668
     10 N         138.0224  142.3583  163.4616 N.ar    1  UNL1       -0.2824
     11 H         138.0372  142.7550  159.9444 H       1  UNL1        0.1451
     12 H         137.7945  143.9988  161.0854 H       1  UNL1        0.1451
     13 O         138.4991  139.0407  167.6077 O.3     1  UNL1       -0.4611
     14 C         139.3347  139.8667  168.5401 C.3     1  UNL1        0.1988
     15 C         140.7354  140.4029  168.5162 C.3     1  UNL1        0.1143
     16 N         140.5164  141.0349  169.8588 N.3     1  UNL1       -0.2914
     17 C         139.1157  140.4986  169.8828 C.3     1  UNL1        0.1143
     18 H         140.5723  142.0533  169.8538 H       1  UNL1        0.1235
     19 C         137.7743  143.7059  164.0719 C.3     1  UNL1        0.1438
     20 C         138.8523  144.3780  164.8694 C.3     1  UNL1        0.1561
     21 O         138.5028  145.4847  165.8198 O.3     1  UNL1       -0.3780
     22 H         139.3094  145.8069  166.2516 H       1  UNL1        0.2109
     23 C         140.2799  143.9437  164.7165 C.ar    1  UNL1        0.0167
     24 C         140.8765  142.9716  165.6907 C.ar    1  UNL1       -0.0011
     25 C         142.3041  142.5373  165.5379 C.ar    1  UNL1        0.0037
     26 C         143.1351  143.0751  164.4108 C.ar    1  UNL1        0.0722
     27 C         142.5385  144.0472  163.4367 C.ar    1  UNL1        0.0150
     28 C         141.1109  144.4815  163.5895 C.ar    1  UNL1        0.0559
     29 CL        140.5143  145.4537  162.6153 Cl      1  UNL1       -0.0825
     30 C         144.5627  142.6408  164.2579 C.3     1  UNL1        0.4186
     31 F         145.9903  142.2066  164.1049 F       1  UNL1       -0.1659
     32 F         144.7388  143.6164  163.1322 F       1  UNL1       -0.1659
     33 F         144.3865  141.6654  165.3836 F       1  UNL1       -0.1659
@<TRIPOS>BOND
     1     1     2    1
     2     2     3   ar
     3     3     4   ar
     4     4     5   ar
     5     5     6   ar
     6     6     7   ar
     7     7    13    1
     8    13    14    1
     9    14    15    1
    10    15    16    1
    11    16    17    1
    12     7     8   ar
    13     8     9   ar
    14     9    10   ar
    15    10    19    1
    16    19    20    1
    17    20    21    1
    18    20    23    1
    19    23    24   ar
    20    24    25   ar
    21    25    26   ar
    22    26    30    1
    23    30    31    1
    24    30    32    1
    25    30    33    1
    26    26    27   ar
    27    27    28   ar
    28    28    29    1
    29    10     2   ar
    30    28    23   ar
    31     9     4   ar
    32    17    14    1
    33     1    11    1
    34     1    12    1
    35    16    18    1
    36    21    22    1
@<TRIPOS>MOLECULE
*****
 33 36 0 0 0
SMALL
GASTEIGER

@<TRIPOS>ATOM
      1 N         138.8621  136.8940  165.2861 N.pl3   1  UNL1       -0.3287
      2 C         138.6898  138.1329  164.4582 C.ar    1  UNL1        0.1959
      3 N         138.6227  138.1904  162.9608 N.ar    1  UNL1       -0.2123
      4 C         138.4459  139.6248  162.5593 C.ar    1  UNL1        0.1184
      5 C         138.3178  140.2831  161.2176 C.ar    1  UNL1        0.0271
      6 C         138.1476  141.7705  161.1253 C.ar    1  UNL1        0.0594
      7 C         138.1055  142.5996  162.3746 C.ar    1  UNL1        0.2262
      8 N         138.2335  141.9413  163.7163 N.ar    1  UNL1       -0.1926
      9 C         138.4038  140.4539  163.8087 C.ar    1  UNL1        0.1668
     10 N         138.5545  139.5319  164.9822 N.ar    1  UNL1       -0.2824
     11 H         138.9425  136.0162  164.8477 H       1  UNL1        0.1451
     12 H         138.8946  136.9588  166.2680 H       1  UNL1        0.1451
     13 O         137.9352  144.0871  162.2822 O.3     1  UNL1       -0.4611
     14 C         139.1156  144.9909  162.4817 C.3     1  UNL1        0.1988
     15 C         139.6372  146.2206  161.7993 C.3     1  UNL1        0.1143
     16 N         140.7849  146.2691  162.7640 N.3     1  UNL1       -0.2914
     17 C         140.2633  145.0394  163.4464 C.3     1  UNL1        0.1143
     18 H         140.7970  147.1001  163.3553 H       1  UNL1        0.1235
     19 C         138.5677  139.9376  166.4262 C.3     1  UNL1        0.1438
     20 C         139.8616  139.9710  167.1841 C.3     1  UNL1        0.1561
     21 O         139.8728  139.7077  168.6609 O.3     1  UNL1       -0.3780
     22 H         140.7822  139.7671  168.9930 H       1  UNL1        0.2109
     23 C         141.1444  140.2676  166.4655 C.ar    1  UNL1        0.0167
     24 C         142.0466  139.1448  166.0470 C.ar    1  UNL1       -0.0011
     25 C         143.3294  139.4415  165.3284 C.ar    1  UNL1        0.0037
     26 C         143.7100  140.8610  165.0283 C.ar    1  UNL1        0.0722
     27 C         142.8078  141.9838  165.4469 C.ar    1  UNL1        0.0150
     28 C         141.5250  141.6872  166.1655 C.ar    1  UNL1        0.0559
     29 CL        140.6228  142.8100  166.5841 Cl      1  UNL1       -0.0825
     30 C         144.9928  141.1578  164.3097 C.3     1  UNL1        0.4186
     31 F         146.2757  141.4544  163.5911 F       1  UNL1       -0.1659
     32 F         145.1455  139.7021  163.9812 F       1  UNL1       -0.1659
     33 F         144.8401  142.6133  164.6383 F       1  UNL1       -0.1659
@<TRIPOS>BOND
     1     1     2    1
     2     2     3   ar
     3     3     4   ar
     4     4     5   ar
     5     5     6   ar
     6     6     7   ar
     7     7    13    1
     8    13    14    1
     9    14    15    1
    10    15    16    1
    11    16    17    1
    12     7     8   ar
    13     8     9   ar
    14     9    10   ar
    15    10    19    1
    16    19    20    1
    17    20    21    1
    18    20    23    1
    19    23    24   ar
    20    24    25   ar
    21    25    26   ar
    22    26    30    1
    23    30    31    1
    24    30    32    1
    25    30    33    1
    26    26    27   ar
    27    27    28   ar
    28    28    29    1
    29    10     2   ar
    30    28    23   ar
    31     9     4   ar
    32    17    14    1
    33     1    11    1
    34     1    12    1
    35    16    18    1
    36    21    22    1
@<TRIPOS>MOLECULE
*****
 33 36 0 0 0
SMALL
GASTEIGER

@<TRIPOS>ATOM
      1 N         139.8416  146.7616  162.0795 N.pl3   1  UNL1       -0.3287
      2 C         139.5500  145.3509  162.4976 C.ar    1  UNL1        0.1959
      3 N         138.3046  144.5771  162.1812 N.ar    1  UNL1       -0.2123
      4 C         138.4375  143.2142  162.7936 C.ar    1  UNL1        0.1184
      5 C         137.5212  142.0267  162.8082 C.ar    1  UNL1        0.0271
      6 C         137.9325  140.7708  163.5177 C.ar    1  UNL1        0.0594
      7 C         139.2601  140.7023  164.2125 C.ar    1  UNL1        0.2262
      8 N         140.1764  141.8898  164.1979 N.ar    1  UNL1       -0.1926
      9 C         139.7651  143.1457  163.4884 C.ar    1  UNL1        0.1668
     10 N         140.4526  144.4663  163.3055 N.ar    1  UNL1       -0.2824
     11 H         139.1827  147.2635  161.5473 H       1  UNL1        0.1451
     12 H         140.6919  147.1857  162.3372 H       1  UNL1        0.1451
     13 O         139.6714  139.4463  164.9221 O.3     1  UNL1       -0.4611
     14 C         140.3071  138.3252  164.1546 C.3     1  UNL1        0.1988
     15 C         140.3920  137.9461  162.7058 C.3     1  UNL1        0.1143
     16 N         141.2061  136.7398  163.0692 N.3     1  UNL1       -0.2914
     17 C         141.1212  137.1189  164.5180 C.3     1  UNL1        0.1143
     18 H         142.1536  136.7476  162.6916 H       1  UNL1        0.1235
     19 C         141.8054  144.8371  163.8371 C.3     1  UNL1        0.1438
     20 C         143.0404  144.4590  163.0745 C.3     1  UNL1        0.1561
     21 O         144.0188  145.5175  162.6590 O.3     1  UNL1       -0.3780
     22 H         144.7548  145.1069  162.1788 H       1  UNL1        0.2109
     23 C         143.2972  143.0225  162.7272 C.ar    1  UNL1        0.0167
     24 C         143.9508  142.1146  163.7265 C.ar    1  UNL1       -0.0011
     25 C         144.2077  140.6782  163.3792 C.ar    1  UNL1        0.0037
     26 C         143.8109  140.1496  162.0327 C.ar    1  UNL1        0.0722
     27 C         143.1572  141.0575  161.0334 C.ar    1  UNL1        0.0150
     28 C         142.9004  142.4940  161.3807 C.ar    1  UNL1        0.0559
     29 CL        142.2468  143.4018  160.3815 Cl      1  UNL1       -0.0825
     30 C         144.0676  138.7131  161.6853 C.3     1  UNL1        0.4186
     31 F         144.3244  137.2766  161.3381 F       1  UNL1       -0.1659
     32 F         143.9512  138.3421  163.1340 F       1  UNL1       -0.1659
     33 F         144.1841  139.0842  160.2367 F       1  UNL1       -0.1659
@<TRIPOS>BOND
     1     1     2    1
     2     2     3   ar
     3     3     4   ar
     4     4     5   ar
     5     5     6   ar
     6     6     7   ar
     7     7    13    1
     8    13    14    1
     9    14    15    1
    10    15    16    1
    11    16    17    1
    12     7     8   ar
    13     8     9   ar
    14     9    10   ar
    15    10    19    1
    16    19    20    1
    17    20    21    1
    18    20    23    1
    19    23    24   ar
    20    24    25   ar
    21    25    26   ar
    22    26    30    1
    23    30    31    1
    24    30    32    1
    25    30    33    1
    26    26    27   ar
    27    27    28   ar
    28    28    29    1
    29    10     2   ar
    30    28    23   ar
    31     9     4   ar
    32    17    14    1
    33     1    11    1
    34     1    12    1
    35    16    18    1
    36    21    22    1
@<TRIPOS>MOLECULE
*****
 33 36 0 0 0
SMALL
GASTEIGER

@<TRIPOS>ATOM
      1 N         138.5913  137.3099  162.8452 N.pl3   1  UNL1       -0.3287
      2 C         139.5772  137.8779  163.8226 C.ar    1  UNL1        0.1959
      3 N         140.9504  137.3426  164.1016 N.ar    1  UNL1       -0.2123
      4 C         141.5849  138.2148  165.1441 C.ar    1  UNL1        0.1184
      5 C         142.9293  138.1695  165.8079 C.ar    1  UNL1        0.0271
      6 C         143.2925  139.1985  166.8370 C.ar    1  UNL1        0.0594
      7 C         142.3115  140.2728  167.2023 C.ar    1  UNL1        0.2262
      8 N         140.9672  140.3181  166.5384 N.ar    1  UNL1       -0.1926
      9 C         140.6039  139.2891  165.5094 C.ar    1  UNL1        0.1668
     10 N         139.3631  139.0808  164.6926 N.ar    1  UNL1       -0.2824
     11 H         138.8254  136.5128  162.3168 H       1  UNL1        0.1451
     12 H         137.7102  137.7341  162.7320 H       1  UNL1        0.1451
     13 O         142.6749  141.3019  168.2314 O.3     1  UNL1       -0.4611
     14 C         142.4809  141.0059  169.6890 C.3     1  UNL1        0.1988
     15 C         142.8696  139.8827  170.6041 C.3     1  UNL1        0.1143
     16 N         142.2066  140.5873  171.7505 N.3     1  UNL1       -0.2914
     17 C         141.8179  141.7104  170.8354 C.3     1  UNL1        0.1143
     18 H         142.8457  140.8606  172.4970 H       1  UNL1        0.1235
     19 C         138.1254  139.9271  164.7380 C.3     1  UNL1        0.1438
     20 C         138.0292  141.1613  163.8911 C.3     1  UNL1        0.1561
     21 O         136.7340  141.5117  163.2205 O.3     1  UNL1       -0.3780
     22 H         136.8430  142.3329  162.7158 H       1  UNL1        0.2109
     23 C         139.2282  142.0453  163.7148 C.ar    1  UNL1        0.0167
     24 C         139.5206  143.1215  164.7178 C.ar    1  UNL1       -0.0011
     25 C         140.7196  144.0055  164.5414 C.ar    1  UNL1        0.0037
     26 C         141.6262  143.8132  163.3620 C.ar    1  UNL1        0.0722
     27 C         141.3338  142.7369  162.3589 C.ar    1  UNL1        0.0150
     28 C         140.1348  141.8529  162.5353 C.ar    1  UNL1        0.0559
     29 CL        139.8424  140.7767  161.5323 Cl      1  UNL1       -0.0825
     30 C         142.8252  144.6971  163.1855 C.3     1  UNL1        0.4186
     31 F         144.0242  145.5810  163.0090 F       1  UNL1       -0.1659
     32 F         142.5019  144.8445  161.7282 F       1  UNL1       -0.1659
     33 F         143.1484  144.5496  164.6428 F       1  UNL1       -0.1659
@<TRIPOS>BOND
     1     1     2    1
     2     2     3   ar
     3     3     4   ar
     4     4     5   ar
     5     5     6   ar
     6     6     7   ar
     7     7    13    1
     8    13    14    1
     9    14    15    1
    10    15    16    1
    11    16    17    1
    12     7     8   ar
    13     8     9   ar
    14     9    10   ar
    15    10    19    1
    16    19    20    1
    17    20    21    1
    18    20    23    1
    19    23    24   ar
    20    24    25   ar
    21    25    26   ar
    22    26    30    1
    23    30    31    1
    24    30    32    1
    25    30    33    1
    26    26    27   ar
    27    27    28   ar
    28    28    29    1
    29    10     2   ar
    30    28    23   ar
    31     9     4   ar
    32    17    14    1
    33     1    11    1
    34     1    12    1
    35    16    18    1
    36    21    22    1
