@<TRIPOS>MOLECULE
*****
 29 32 0 0 0
SMALL
GASTEIGER

@<TRIPOS>ATOM
      1 O         141.5137  138.2743  160.7133 O.2     1  UNL1       -0.2522
      2 C         142.4714  139.3356  160.2588 C.2     1  UNL1        0.3080
      3 N         142.8772  139.4119  158.8168 N.am    1  UNL1       -0.2681
      4 N         143.0232  140.3205  161.2464 N.am    1  UNL1       -0.2559
      5 C         143.9720  141.3397  160.6882 C.3     1  UNL1        0.1425
      6 C         144.6852  142.4461  161.4074 C.3     1  UNL1        0.2268
      7 O         144.6259  142.8067  162.8622 O.3     1  UNL1       -0.4739
      8 C         143.8387  142.1499  163.9572 C.ar    1  UNL1        0.1362
      9 C         144.0649  142.8269  165.2765 C.ar    1  UNL1        0.0366
     10 C         143.3687  142.3242  166.5065 C.ar    1  UNL1        0.0031
     11 C         142.4464  141.1447  166.4171 C.ar    1  UNL1        0.0000
     12 C         142.2203  140.4677  165.0977 C.ar    1  UNL1        0.0004
     13 C         142.9164  140.9703  163.8678 C.ar    1  UNL1        0.0317
     14 C         142.5535  140.1562  162.6613 C.3     1  UNL1        0.1248
     15 H         143.5057  140.1085  158.5185 H       1  UNL1        0.1564
     16 C         142.3252  138.4269  157.8292 C.ar    1  UNL1        0.0525
     17 C         141.1849  138.8184  156.9369 C.ar    1  UNL1        0.0156
     18 C         140.6330  137.8333  155.9494 C.ar    1  UNL1        0.0135
     19 C         141.2215  136.4569  155.8541 C.ar    1  UNL1        0.0683
     20 CL        140.6696  135.4720  154.8666 Cl      1  UNL1       -0.0814
     21 C         142.3619  136.0655  156.7464 C.ar    1  UNL1        0.0694
     22 CL        142.9505  134.6890  156.6512 Cl      1  UNL1       -0.0813
     23 C         142.9138  137.0505  157.7339 C.ar    1  UNL1        0.0270
     24 C         141.7503  140.6420  167.6470 C.ar    1  UNL1        0.0031
     25 C         142.5386  139.9760  168.7357 C.ar    1  UNL1        0.0207
     26 C         141.8424  139.4734  169.9656 C.ar    1  UNL1        0.0989
     27 N         140.3580  139.6367  170.1069 N.ar    1  UNL1       -0.2423
     28 C         139.5698  140.3027  169.0182 C.ar    1  UNL1        0.0989
     29 C         140.2660  140.8053  167.7883 C.ar    1  UNL1        0.0207
@<TRIPOS>BOND
     1     1     2    2
     2     2     3   am
     3     3    16    1
     4    16    17   ar
     5    17    18   ar
     6    18    19   ar
     7    19    20    1
     8    19    21   ar
     9    21    22    1
    10    21    23   ar
    11     2     4   am
    12     4     5    1
    13     5     6    1
    14     6     7    1
    15     7     8    1
    16     8     9   ar
    17     9    10   ar
    18    10    11   ar
    19    11    24    1
    20    24    25   ar
    21    25    26   ar
    22    26    27   ar
    23    27    28   ar
    24    28    29   ar
    25    11    12   ar
    26    12    13   ar
    27    13    14    1
    28    23    16   ar
    29    14     4    1
    30    13     8   ar
    31    29    24   ar
    32     3    15    1
@<TRIPOS>MOLECULE
*****
 29 32 0 0 0
SMALL
GASTEIGER

@<TRIPOS>ATOM
      1 O         142.5626  141.6266  161.5687 O.2     1  UNL1       -0.2522
      2 C         141.6154  140.5520  161.1236 C.2     1  UNL1        0.3080
      3 N         141.5850  140.1277  159.6852 N.am    1  UNL1       -0.2681
      4 N         140.6986  139.9019  162.1170 N.am    1  UNL1       -0.2559
      5 C         139.7923  138.8400  161.5681 C.3     1  UNL1        0.1425
      6 C         138.7728  138.0135  162.2946 C.3     1  UNL1        0.2268
      7 O         138.4080  138.0447  163.7491 O.3     1  UNL1       -0.4739
      8 C         138.9724  138.9101  164.8366 C.ar    1  UNL1        0.1362
      9 C         138.3251  138.6210  166.1585 C.ar    1  UNL1        0.0366
     10 C         138.7466  139.3798  167.3819 C.ar    1  UNL1        0.0031
     11 C         139.8153  140.4277  167.2833 C.ar    1  UNL1        0.0000
     12 C         140.4626  140.7168  165.9613 C.ar    1  UNL1        0.0004
     13 C         140.0411  139.9580  164.7380 C.ar    1  UNL1        0.0317
     14 C         140.8093  140.3993  163.5276 C.3     1  UNL1        0.1248
     15 H         140.9633  139.4224  159.3931 H       1  UNL1        0.1564
     16 C         142.5018  140.7780  158.6919 C.ar    1  UNL1        0.0525
     17 C         143.8319  140.1581  158.3812 C.ar    1  UNL1        0.0156
     18 C         144.7487  140.8084  157.3879 C.ar    1  UNL1        0.0135
     19 C         144.3354  142.0785  156.7052 C.ar    1  UNL1        0.0683
     20 CL        145.2522  142.7286  155.7119 Cl      1  UNL1       -0.0814
     21 C         143.0053  142.6983  157.0160 C.ar    1  UNL1        0.0694
     22 CL        142.5920  143.9685  156.3333 Cl      1  UNL1       -0.0813
     23 C         142.0885  142.0481  158.0092 C.ar    1  UNL1        0.0270
     24 C         140.2368  141.1865  168.5066 C.ar    1  UNL1        0.0031
     25 C         140.4693  140.4588  169.7975 C.ar    1  UNL1        0.0207
     26 C         140.8908  141.2176  171.0208 C.ar    1  UNL1        0.0989
     27 N         141.0798  142.7041  170.9533 N.ar    1  UNL1       -0.2423
     28 C         140.8472  143.4318  169.6624 C.ar    1  UNL1        0.0989
     29 C         140.4257  142.6730  168.4391 C.ar    1  UNL1        0.0207
@<TRIPOS>BOND
     1     1     2    2
     2     2     3   am
     3     3    16    1
     4    16    17   ar
     5    17    18   ar
     6    18    19   ar
     7    19    20    1
     8    19    21   ar
     9    21    22    1
    10    21    23   ar
    11     2     4   am
    12     4     5    1
    13     5     6    1
    14     6     7    1
    15     7     8    1
    16     8     9   ar
    17     9    10   ar
    18    10    11   ar
    19    11    24    1
    20    24    25   ar
    21    25    26   ar
    22    26    27   ar
    23    27    28   ar
    24    28    29   ar
    25    11    12   ar
    26    12    13   ar
    27    13    14    1
    28    23    16   ar
    29    14     4    1
    30    13     8   ar
    31    29    24   ar
    32     3    15    1
@<TRIPOS>MOLECULE
*****
 29 32 0 0 0
SMALL
GASTEIGER

@<TRIPOS>ATOM
      1 O         139.0555  142.7915  160.9717 O.2     1  UNL1       -0.2522
      2 C         140.4797  143.0575  160.5833 C.2     1  UNL1        0.3080
      3 N         140.8293  143.3203  159.1485 N.am    1  UNL1       -0.2681
      4 N         141.5544  143.0607  161.6298 N.am    1  UNL1       -0.2559
      5 C         142.9434  143.3371  161.1354 C.3     1  UNL1        0.1425
      6 C         144.2190  143.4082  161.9214 C.3     1  UNL1        0.2268
      7 O         144.4207  143.2204  163.3958 O.3     1  UNL1       -0.4739
      8 C         143.3966  142.9151  164.4485 C.ar    1  UNL1        0.1362
      9 C         144.0229  142.8066  165.8071 C.ar    1  UNL1        0.0366
     10 C         143.1704  142.5051  167.0040 C.ar    1  UNL1        0.0031
     11 C         141.6917  142.3123  166.8422 C.ar    1  UNL1        0.0000
     12 C         141.0654  142.4208  165.4835 C.ar    1  UNL1        0.0004
     13 C         141.9179  142.7222  164.2867 C.ar    1  UNL1        0.0317
     14 C         141.0981  142.7870  163.0322 C.3     1  UNL1        0.1248
     15 H         141.7641  143.4948  158.8936 H       1  UNL1        0.1564
     16 C         139.7546  143.3171  158.1020 C.ar    1  UNL1        0.0525
     17 C         139.6709  144.4386  157.1095 C.ar    1  UNL1        0.0156
     18 C         138.5962  144.4353  156.0631 C.ar    1  UNL1        0.0135
     19 C         137.6052  143.3105  156.0092 C.ar    1  UNL1        0.0683
     20 CL        136.5306  143.3074  154.9627 Cl      1  UNL1       -0.0814
     21 C         137.6890  142.1891  157.0017 C.ar    1  UNL1        0.0694
     22 CL        136.6979  141.0643  156.9477 Cl      1  UNL1       -0.0813
     23 C         138.7636  142.1923  158.0481 C.ar    1  UNL1        0.0270
     24 C         140.8392  142.0109  168.0390 C.ar    1  UNL1        0.0031
     25 C         140.6860  143.0321  169.1270 C.ar    1  UNL1        0.0207
     26 C         139.8335  142.7307  170.3238 C.ar    1  UNL1        0.0989
     27 N         139.1343  141.4081  170.4327 N.ar    1  UNL1       -0.2423
     28 C         139.2875  140.3869  169.3447 C.ar    1  UNL1        0.0989
     29 C         140.1400  140.6883  168.1479 C.ar    1  UNL1        0.0207
@<TRIPOS>BOND
     1     1     2    2
     2     2     3   am
     3     3    16    1
     4    16    17   ar
     5    17    18   ar
     6    18    19   ar
     7    19    20    1
     8    19    21   ar
     9    21    22    1
    10    21    23   ar
    11     2     4   am
    12     4     5    1
    13     5     6    1
    14     6     7    1
    15     7     8    1
    16     8     9   ar
    17     9    10   ar
    18    10    11   ar
    19    11    24    1
    20    24    25   ar
    21    25    26   ar
    22    26    27   ar
    23    27    28   ar
    24    28    29   ar
    25    11    12   ar
    26    12    13   ar
    27    13    14    1
    28    23    16   ar
    29    14     4    1
    30    13     8   ar
    31    29    24   ar
    32     3    15    1
@<TRIPOS>MOLECULE
*****
 29 32 0 0 0
SMALL
GASTEIGER

@<TRIPOS>ATOM
      1 O         142.4436  137.3953  159.9267 O.2     1  UNL1       -0.2522
      2 C         143.0011  138.4942  159.0714 C.2     1  UNL1        0.3080
      3 N         143.1193  138.3037  157.5883 N.am    1  UNL1       -0.2681
      4 N         143.4402  139.7838  159.6993 N.am    1  UNL1       -0.2559
      5 C         143.9822  140.8158  158.7553 C.3     1  UNL1        0.1425
      6 C         144.4972  142.1898  159.0670 C.3     1  UNL1        0.2268
      7 O         144.5972  142.8710  160.3996 O.3     1  UNL1       -0.4739
      8 C         144.2071  142.3466  161.7497 C.ar    1  UNL1        0.1362
      9 C         144.4734  143.3554  162.8273 C.ar    1  UNL1        0.0366
     10 C         144.1531  143.0290  164.2560 C.ar    1  UNL1        0.0031
     11 C         143.5665  141.6938  164.6069 C.ar    1  UNL1        0.0000
     12 C         143.3003  140.6849  163.5292 C.ar    1  UNL1        0.0004
     13 C         143.6206  141.0113  162.1006 C.ar    1  UNL1        0.0317
     14 C         143.2793  139.8708  161.1880 C.3     1  UNL1        0.1248
     15 H         143.4852  139.0250  157.0270 H       1  UNL1        0.1564
     16 C         142.6802  137.0141  156.9604 C.ar    1  UNL1        0.0525
     17 C         141.5047  136.9956  156.0289 C.ar    1  UNL1        0.0156
     18 C         141.0656  135.7060  155.4010 C.ar    1  UNL1        0.0135
     19 C         141.8020  134.4349  155.7048 C.ar    1  UNL1        0.0683
     20 CL        141.3628  133.1454  155.0769 Cl      1  UNL1       -0.0814
     21 C         142.9774  134.4535  156.6364 C.ar    1  UNL1        0.0694
     22 CL        143.7138  133.1824  156.9401 Cl      1  UNL1       -0.0813
     23 C         143.4165  135.7431  157.2642 C.ar    1  UNL1        0.0270
     24 C         143.2462  141.3673  166.0354 C.ar    1  UNL1        0.0031
     25 C         143.2535  142.4513  167.0723 C.ar    1  UNL1        0.0207
     26 C         142.9332  142.1249  168.5008 C.ar    1  UNL1        0.0989
     27 N         142.6056  140.7144  168.8926 N.ar    1  UNL1       -0.2423
     28 C         142.5983  139.6305  167.8558 C.ar    1  UNL1        0.0989
     29 C         142.9186  139.9570  166.4272 C.ar    1  UNL1        0.0207
@<TRIPOS>BOND
     1     1     2    2
     2     2     3   am
     3     3    16    1
     4    16    17   ar
     5    17    18   ar
     6    18    19   ar
     7    19    20    1
     8    19    21   ar
     9    21    22    1
    10    21    23   ar
    11     2     4   am
    12     4     5    1
    13     5     6    1
    14     6     7    1
    15     7     8    1
    16     8     9   ar
    17     9    10   ar
    18    10    11   ar
    19    11    24    1
    20    24    25   ar
    21    25    26   ar
    22    26    27   ar
    23    27    28   ar
    24    28    29   ar
    25    11    12   ar
    26    12    13   ar
    27    13    14    1
    28    23    16   ar
    29    14     4    1
    30    13     8   ar
    31    29    24   ar
    32     3    15    1
@<TRIPOS>MOLECULE
*****
 29 32 0 0 0
SMALL
GASTEIGER

@<TRIPOS>ATOM
      1 O         139.3333  143.1363  160.9822 O.2     1  UNL1       -0.2522
      2 C         140.7775  143.3687  160.6500 C.2     1  UNL1        0.3080
      3 N         141.1826  143.6749  159.2387 N.am    1  UNL1       -0.2681
      4 N         141.8165  143.2948  161.7294 N.am    1  UNL1       -0.2559
      5 C         143.2293  143.5430  161.2907 C.3     1  UNL1        0.1425
      6 C         144.4800  143.5402  162.1190 C.3     1  UNL1        0.2268
      7 O         144.6266  143.2886  163.5903 O.3     1  UNL1       -0.4739
      8 C         143.5590  142.9776  164.5970 C.ar    1  UNL1        0.1362
      9 C         144.1362  142.7953  165.9694 C.ar    1  UNL1        0.0366
     10 C         143.2353  142.4768  167.1257 C.ar    1  UNL1        0.0031
     11 C         141.7572  142.3406  166.9096 C.ar    1  UNL1        0.0000
     12 C         141.1800  142.5230  165.5370 C.ar    1  UNL1        0.0004
     13 C         142.0809  142.8415  164.3808 C.ar    1  UNL1        0.0317
     14 C         141.3055  142.9826  163.1046 C.3     1  UNL1        0.1248
     15 H         142.1305  143.8274  159.0207 H       1  UNL1        0.1564
     16 C         140.1435  143.7487  158.1593 C.ar    1  UNL1        0.0525
     17 C         139.2479  142.5740  157.8989 C.ar    1  UNL1        0.0156
     18 C         138.2088  142.6479  156.8195 C.ar    1  UNL1        0.0135
     19 C         138.0654  143.8965  156.0007 C.ar    1  UNL1        0.0683
     20 CL        137.0263  143.9703  154.9214 Cl      1  UNL1       -0.0814
     21 C         138.9610  145.0712  156.2613 C.ar    1  UNL1        0.0694
     22 CL        138.8175  146.3198  155.4424 Cl      1  UNL1       -0.0813
     23 C         140.0000  144.9973  157.3405 C.ar    1  UNL1        0.0270
     24 C         140.8563  142.0221  168.0658 C.ar    1  UNL1        0.0031
     25 C         140.1315  140.7096  168.1125 C.ar    1  UNL1        0.0207
     26 C         139.2306  140.3911  169.2687 C.ar    1  UNL1        0.0989
     27 N         139.0545  141.3851  170.3783 N.ar    1  UNL1       -0.2423
     28 C         139.7792  142.6976  170.3316 C.ar    1  UNL1        0.0989
     29 C         140.6802  143.0160  169.1753 C.ar    1  UNL1        0.0207
@<TRIPOS>BOND
     1     1     2    2
     2     2     3   am
     3     3    16    1
     4    16    17   ar
     5    17    18   ar
     6    18    19   ar
     7    19    20    1
     8    19    21   ar
     9    21    22    1
    10    21    23   ar
    11     2     4   am
    12     4     5    1
    13     5     6    1
    14     6     7    1
    15     7     8    1
    16     8     9   ar
    17     9    10   ar
    18    10    11   ar
    19    11    24    1
    20    24    25   ar
    21    25    26   ar
    22    26    27   ar
    23    27    28   ar
    24    28    29   ar
    25    11    12   ar
    26    12    13   ar
    27    13    14    1
    28    23    16   ar
    29    14     4    1
    30    13     8   ar
    31    29    24   ar
    32     3    15    1
@<TRIPOS>MOLECULE
*****
 29 32 0 0 0
SMALL
GASTEIGER

@<TRIPOS>ATOM
      1 O         140.6764  143.1215  161.8208 O.2     1  UNL1       -0.2522
      2 C         141.4999  141.9554  161.3601 C.2     1  UNL1        0.3080
      3 N         141.7600  141.7523  159.8969 N.am    1  UNL1       -0.2681
      4 N         142.0633  140.9925  162.3628 N.am    1  UNL1       -0.2559
      5 C         142.8715  139.8625  161.7970 C.3     1  UNL1        0.1425
      6 C         143.5601  138.7478  162.5274 C.3     1  UNL1        0.2268
      7 O         143.6105  138.4878  164.0037 O.3     1  UNL1       -0.4739
      8 C         142.9849  139.2782  165.1145 C.ar    1  UNL1        0.1362
      9 C         143.2809  138.6707  166.4536 C.ar    1  UNL1        0.0366
     10 C         142.7463  139.3088  167.7015 C.ar    1  UNL1        0.0031
     11 C         141.9157  140.5545  167.6101 C.ar    1  UNL1        0.0000
     12 C         141.6197  141.1621  166.2710 C.ar    1  UNL1        0.0004
     13 C         142.1543  140.5240  165.0232 C.ar    1  UNL1        0.0317
     14 C         141.7442  141.2868  163.7985 C.3     1  UNL1        0.1248
     15 H         142.3005  140.9870  159.5946 H       1  UNL1        0.1564
     16 C         141.1965  142.7153  158.8942 C.ar    1  UNL1        0.0525
     17 C         139.8595  142.4495  158.2683 C.ar    1  UNL1        0.0156
     18 C         139.2961  143.4125  157.2657 C.ar    1  UNL1        0.0135
     19 C         140.0696  144.6412  156.8890 C.ar    1  UNL1        0.0683
     20 CL        139.5061  145.6041  155.8864 Cl      1  UNL1       -0.0814
     21 C         141.4066  144.9069  157.5150 C.ar    1  UNL1        0.0694
     22 CL        142.1802  146.1357  157.1382 Cl      1  UNL1       -0.0813
     23 C         141.9700  143.9440  158.5175 C.ar    1  UNL1        0.0270
     24 C         141.3811  141.1926  168.8579 C.ar    1  UNL1        0.0031
     25 C         140.7837  142.5673  168.8005 C.ar    1  UNL1        0.0207
     26 C         140.2490  143.2054  170.0483 C.ar    1  UNL1        0.0989
     27 N         140.3118  142.4688  171.3535 N.ar    1  UNL1       -0.2423
     28 C         140.9092  141.0941  171.4109 C.ar    1  UNL1        0.0989
     29 C         141.4439  140.4560  170.1630 C.ar    1  UNL1        0.0207
@<TRIPOS>BOND
     1     1     2    2
     2     2     3   am
     3     3    16    1
     4    16    17   ar
     5    17    18   ar
     6    18    19   ar
     7    19    20    1
     8    19    21   ar
     9    21    22    1
    10    21    23   ar
    11     2     4   am
    12     4     5    1
    13     5     6    1
    14     6     7    1
    15     7     8    1
    16     8     9   ar
    17     9    10   ar
    18    10    11   ar
    19    11    24    1
    20    24    25   ar
    21    25    26   ar
    22    26    27   ar
    23    27    28   ar
    24    28    29   ar
    25    11    12   ar
    26    12    13   ar
    27    13    14    1
    28    23    16   ar
    29    14     4    1
    30    13     8   ar
    31    29    24   ar
    32     3    15    1
@<TRIPOS>MOLECULE
*****
 29 32 0 0 0
SMALL
GASTEIGER

@<TRIPOS>ATOM
      1 O         138.7981  141.9684  161.0879 O.2     1  UNL1       -0.2522
      2 C         139.8623  141.0192  160.6225 C.2     1  UNL1        0.3080
      3 N         140.0467  140.7595  159.1567 N.am    1  UNL1       -0.2681
      4 N         140.7420  140.3298  161.6229 N.am    1  UNL1       -0.2559
      5 C         141.7733  139.4018  161.0522 C.3     1  UNL1        0.1425
      6 C         142.7915  138.5744  161.7794 C.3     1  UNL1        0.2268
      7 O         143.0298  138.4705  163.2566 O.3     1  UNL1       -0.4739
      8 C         142.3089  139.1684  164.3717 C.ar    1  UNL1        0.1362
      9 C         142.8646  138.7816  165.7102 C.ar    1  UNL1        0.0366
     10 C         142.2829  139.3690  166.9619 C.ar    1  UNL1        0.0031
     11 C         141.1456  140.3432  166.8750 C.ar    1  UNL1        0.0000
     12 C         140.5900  140.7300  165.5364 C.ar    1  UNL1        0.0004
     13 C         141.1717  140.1426  164.2848 C.ar    1  UNL1        0.0317
     14 C         140.4744  140.6594  163.0614 C.3     1  UNL1        0.1248
     15 H         140.7452  140.1366  158.8512 H       1  UNL1        0.1564
     16 C         139.1669  141.4490  158.1563 C.ar    1  UNL1        0.0525
     17 C         137.8661  140.8250  157.7457 C.ar    1  UNL1        0.0156
     18 C         136.9864  141.5145  156.7454 C.ar    1  UNL1        0.0135
     19 C         137.4074  142.8279  156.1557 C.ar    1  UNL1        0.0683
     20 CL        136.5276  143.5173  155.1553 Cl      1  UNL1       -0.0814
     21 C         138.7082  143.4518  156.5664 C.ar    1  UNL1        0.0694
     22 CL        139.1292  144.7653  155.9766 Cl      1  UNL1       -0.0813
     23 C         139.5879  142.7624  157.5667 C.ar    1  UNL1        0.0270
     24 C         140.5639  140.9305  168.1266 C.ar    1  UNL1        0.0031
     25 C         139.5598  140.1522  168.9241 C.ar    1  UNL1        0.0207
     26 C         138.9781  140.7395  170.1757 C.ar    1  UNL1        0.0989
     27 N         139.4005  142.1053  170.6299 N.ar    1  UNL1       -0.2423
     28 C         140.4046  142.8837  169.8325 C.ar    1  UNL1        0.0989
     29 C         140.9863  142.2962  168.5808 C.ar    1  UNL1        0.0207
@<TRIPOS>BOND
     1     1     2    2
     2     2     3   am
     3     3    16    1
     4    16    17   ar
     5    17    18   ar
     6    18    19   ar
     7    19    20    1
     8    19    21   ar
     9    21    22    1
    10    21    23   ar
    11     2     4   am
    12     4     5    1
    13     5     6    1
    14     6     7    1
    15     7     8    1
    16     8     9   ar
    17     9    10   ar
    18    10    11   ar
    19    11    24    1
    20    24    25   ar
    21    25    26   ar
    22    26    27   ar
    23    27    28   ar
    24    28    29   ar
    25    11    12   ar
    26    12    13   ar
    27    13    14    1
    28    23    16   ar
    29    14     4    1
    30    13     8   ar
    31    29    24   ar
    32     3    15    1
@<TRIPOS>MOLECULE
*****
 29 32 0 0 0
SMALL
GASTEIGER

@<TRIPOS>ATOM
      1 O         139.8048  142.3286  163.7513 O.2     1  UNL1       -0.2522
      2 C         141.2891  142.1184  163.6997 C.2     1  UNL1        0.3080
      3 N         142.0259  141.6685  164.9264 N.am    1  UNL1       -0.2681
      4 N         142.0366  142.3581  162.4215 N.am    1  UNL1       -0.2559
      5 C         143.5163  142.1187  162.4783 C.3     1  UNL1        0.1425
      6 C         144.5305  142.2676  161.3830 C.3     1  UNL1        0.2268
      7 O         144.3153  142.6926  159.9608 O.3     1  UNL1       -0.4739
      8 C         143.0330  143.0737  159.2822 C.ar    1  UNL1        0.1362
      9 C         143.2604  143.4360  157.8446 C.ar    1  UNL1        0.0366
     10 C         142.1037  143.8486  156.9831 C.ar    1  UNL1        0.0031
     11 C         140.7198  143.8988  157.5594 C.ar    1  UNL1        0.0000
     12 C         140.4924  143.5365  158.9972 C.ar    1  UNL1        0.0004
     13 C         141.6490  143.1239  159.8585 C.ar    1  UNL1        0.0317
     14 C         141.2057  142.8054  161.2557 C.3     1  UNL1        0.1248
     15 H         143.0001  141.5306  164.8925 H       1  UNL1        0.1564
     16 C         141.2784  141.4288  166.2046 C.ar    1  UNL1        0.0525
     17 C         140.5686  140.1260  166.4254 C.ar    1  UNL1        0.0156
     18 C         139.8211  139.8864  167.7036 C.ar    1  UNL1        0.0135
     19 C         139.7834  140.9495  168.7610 C.ar    1  UNL1        0.0683
     20 CL        139.0359  140.7098  170.0392 Cl      1  UNL1       -0.0814
     21 C         140.4932  142.2524  168.5402 C.ar    1  UNL1        0.0694
     22 CL        140.4554  143.3156  169.5977 Cl      1  UNL1       -0.0813
     23 C         141.2406  142.4920  167.2621 C.ar    1  UNL1        0.0270
     24 C         139.5632  144.3114  156.6980 C.ar    1  UNL1        0.0031
     25 C         138.4441  143.3483  156.4332 C.ar    1  UNL1        0.0207
     26 C         137.2875  143.7608  155.5718 C.ar    1  UNL1        0.0989
     27 N         137.2499  145.1366  154.9752 N.ar    1  UNL1       -0.2423
     28 C         138.3690  146.0997  155.2400 C.ar    1  UNL1        0.0989
     29 C         139.5256  145.6871  156.1014 C.ar    1  UNL1        0.0207
@<TRIPOS>BOND
     1     1     2    2
     2     2     3   am
     3     3    16    1
     4    16    17   ar
     5    17    18   ar
     6    18    19   ar
     7    19    20    1
     8    19    21   ar
     9    21    22    1
    10    21    23   ar
    11     2     4   am
    12     4     5    1
    13     5     6    1
    14     6     7    1
    15     7     8    1
    16     8     9   ar
    17     9    10   ar
    18    10    11   ar
    19    11    24    1
    20    24    25   ar
    21    25    26   ar
    22    26    27   ar
    23    27    28   ar
    24    28    29   ar
    25    11    12   ar
    26    12    13   ar
    27    13    14    1
    28    23    16   ar
    29    14     4    1
    30    13     8   ar
    31    29    24   ar
    32     3    15    1
@<TRIPOS>MOLECULE
*****
 29 32 0 0 0
SMALL
GASTEIGER

@<TRIPOS>ATOM
      1 O         141.0941  143.1117  164.4889 O.2     1  UNL1       -0.2522
      2 C         140.3809  141.7947  164.5708 C.2     1  UNL1        0.3080
      3 N         140.3513  141.0369  165.8649 N.am    1  UNL1       -0.2681
      4 N         139.6972  141.2354  163.3584 N.am    1  UNL1       -0.2559
      5 C         139.0142  139.9135  163.5482 C.3     1  UNL1        0.1425
      6 C         138.2521  139.1016  162.5430 C.3     1  UNL1        0.2268
      7 O         137.9850  139.4112  161.0999 O.3     1  UNL1       -0.4739
      8 C         138.4139  140.6091  160.3054 C.ar    1  UNL1        0.1362
      9 C         137.9341  140.5261  158.8866 C.ar    1  UNL1        0.0366
     10 C         138.2563  141.6272  157.9203 C.ar    1  UNL1        0.0031
     11 C         139.0582  142.8114  158.3728 C.ar    1  UNL1        0.0000
     12 C         139.5380  142.8943  159.7916 C.ar    1  UNL1        0.0004
     13 C         139.2158  141.7932  160.7579 C.ar    1  UNL1        0.0317
     14 C         139.7869  142.0719  162.1166 C.3     1  UNL1        0.1248
     15 H         139.8832  140.1725  165.9186 H       1  UNL1        0.1564
     16 C         141.0350  141.5962  167.0773 C.ar    1  UNL1        0.0525
     17 C         142.4153  141.1345  167.4399 C.ar    1  UNL1        0.0156
     18 C         143.0990  141.6938  168.6522 C.ar    1  UNL1        0.0135
     19 C         142.4023  142.7149  169.5020 C.ar    1  UNL1        0.0683
     20 CL        143.0861  143.2741  170.7143 Cl      1  UNL1       -0.0814
     21 C         141.0220  143.1766  169.1394 C.ar    1  UNL1        0.0694
     22 CL        140.3254  144.1976  169.9893 Cl      1  UNL1       -0.0813
     23 C         140.3384  142.6173  167.9271 C.ar    1  UNL1        0.0270
     24 C         139.3804  143.9125  157.4065 C.ar    1  UNL1        0.0031
     25 C         138.7528  143.9223  156.0442 C.ar    1  UNL1        0.0207
     26 C         139.0750  145.0234  155.0779 C.ar    1  UNL1        0.0989
     27 N         140.0248  146.1148  155.4740 N.ar    1  UNL1       -0.2423
     28 C         140.6524  146.1050  156.8363 C.ar    1  UNL1        0.0989
     29 C         140.3302  145.0038  157.8026 C.ar    1  UNL1        0.0207
@<TRIPOS>BOND
     1     1     2    2
     2     2     3   am
     3     3    16    1
     4    16    17   ar
     5    17    18   ar
     6    18    19   ar
     7    19    20    1
     8    19    21   ar
     9    21    22    1
    10    21    23   ar
    11     2     4   am
    12     4     5    1
    13     5     6    1
    14     6     7    1
    15     7     8    1
    16     8     9   ar
    17     9    10   ar
    18    10    11   ar
    19    11    24    1
    20    24    25   ar
    21    25    26   ar
    22    26    27   ar
    23    27    28   ar
    24    28    29   ar
    25    11    12   ar
    26    12    13   ar
    27    13    14    1
    28    23    16   ar
    29    14     4    1
    30    13     8   ar
    31    29    24   ar
    32     3    15    1
