@<TRIPOS>MOLECULE
*****
 34 36 0 0 0
SMALL
GASTEIGER

@<TRIPOS>ATOM
      1 C         140.7972  140.2916  169.1258 C.ar    1  UNL1        0.2167
      2 N         142.1038  140.0492  168.4300 N.ar    1  UNL1       -0.2184
      3 C         142.1190  139.5478  167.0163 C.ar    1  UNL1        0.0628
      4 C         140.8277  139.2888  166.2985 C.ar    1  UNL1        0.0336
      5 C         139.5211  139.5312  166.9943 C.ar    1  UNL1        0.1358
      6 N         139.5059  140.0325  168.4079 N.ar    1  UNL1       -0.2095
      7 C         140.8429  138.7874  164.8849 C.3     1  UNL1        0.1229
      8 N         142.1495  138.5451  164.1891 N.am    1  UNL1       -0.2749
      9 C         142.1647  138.0437  162.7754 C.2     1  UNL1        0.2262
     10 O         143.4713  137.8014  162.0797 O.2     1  UNL1       -0.2748
     11 C         143.4408  138.8041  164.9070 C.3     1  UNL1        0.1000
     12 C         143.4256  139.3055  166.3206 C.3     1  UNL1        0.0672
     13 C         138.2297  139.2722  166.2764 C.2     1  UNL1        0.2604
     14 N         137.7747  140.2032  165.1920 N.am    1  UNL1       -0.3241
     15 O         137.3934  138.0821  166.6430 O.2     1  UNL1       -0.2687
     16 H         138.3235  140.9843  164.9514 H       1  UNL1        0.1453
     17 H         136.9271  140.0332  164.7208 H       1  UNL1        0.1453
     18 N         140.7819  140.7929  170.5395 N.pl3   1  UNL1       -0.3030
     19 H         140.8765  140.1598  171.2874 H       1  UNL1        0.1496
     20 C         140.5569  143.2323  169.6741 C.3     1  UNL1        0.0230
     21 C         140.6225  142.2591  170.8136 C.3     1  UNL1        0.0896
     22 C         140.8734  137.7847  162.0576 C.3     1  UNL1        0.0900
     23 C         140.3655  138.7711  161.0481 C.3     1  UNL1        0.0359
     24 C         139.7928  140.0811  161.5019 C.ar    1  UNL1       -0.0215
     25 C         140.7070  141.2050  161.8903 C.ar    1  UNL1       -0.0011
     26 C         140.1342  142.5150  162.3441 C.ar    1  UNL1        0.0369
     27 C         138.6473  142.7011  162.4094 C.ar    1  UNL1        0.1468
     28 C         137.7330  141.5771  162.0209 C.ar    1  UNL1        0.0369
     29 C         138.3058  140.2671  161.5671 C.ar    1  UNL1       -0.0011
     30 O         138.0746  144.0110  162.8631 O.3     1  UNL1       -0.4045
     31 C         138.3908  144.5336  164.2331 C.3     1  UNL1        0.5753
     32 F         138.7072  145.0562  165.6031 F       1  UNL1       -0.1328
     33 F         137.4166  143.5611  164.8289 F       1  UNL1       -0.1328
     34 F         139.3651  145.5060  163.6372 F       1  UNL1       -0.1328
@<TRIPOS>BOND
     1    20    21    1
     2    21    18    1
     3    18     1    1
     4     1     2   ar
     5     2     3   ar
     6     3     4   ar
     7     4     5   ar
     8     5    13    1
     9    13    14   am
    10    13    15    2
    11     5     6   ar
    12     4     7    1
    13     7     8    1
    14     8     9   am
    15     9    10    2
    16     9    22    1
    17    22    23    1
    18    23    24    1
    19    24    25   ar
    20    25    26   ar
    21    26    27   ar
    22    27    30    1
    23    30    31    1
    24    31    32    1
    25    31    33    1
    26    31    34    1
    27    27    28   ar
    28    28    29   ar
    29     8    11    1
    30    11    12    1
    31     6     1   ar
    32    29    24   ar
    33    12     3    1
    34    18    19    1
    35    14    16    1
    36    14    17    1
@<TRIPOS>MOLECULE
*****
 34 36 0 0 0
SMALL
GASTEIGER

@<TRIPOS>ATOM
      1 C         141.3493  144.8219  161.5410 C.ar    1  UNL1        0.2167
      2 N         142.5634  144.4894  162.3567 N.ar    1  UNL1       -0.2184
      3 C         142.4086  143.8686  163.7134 C.ar    1  UNL1        0.0628
      4 C         141.0396  143.5804  164.2545 C.ar    1  UNL1        0.0336
      5 C         139.8254  143.9129  163.4387 C.ar    1  UNL1        0.1358
      6 N         139.9803  144.5337  162.0821 N.ar    1  UNL1       -0.2095
      7 C         140.8847  142.9596  165.6112 C.3     1  UNL1        0.1229
      8 N         142.0988  142.6271  166.4268 N.am    1  UNL1       -0.2749
      9 C         141.9439  142.0063  167.7836 C.2     1  UNL1        0.2262
     10 O         143.1580  141.6738  168.5992 O.2     1  UNL1       -0.2748
     11 C         143.4678  142.9153  165.8858 C.3     1  UNL1        0.1000
     12 C         143.6227  143.5361  164.5291 C.3     1  UNL1        0.0672
     13 C         138.4564  143.6247  163.9798 C.2     1  UNL1        0.2604
     14 N         137.7114  142.4050  163.5243 N.am    1  UNL1       -0.3241
     15 O         137.8323  144.5561  164.9763 O.2     1  UNL1       -0.2687
     16 H         138.1210  141.7937  162.8703 H       1  UNL1        0.1453
     17 H         136.8129  142.2159  163.8794 H       1  UNL1        0.1453
     18 N         141.5042  145.4427  160.1843 N.pl3   1  UNL1       -0.3030
     19 H         142.2589  146.0484  160.0033 H       1  UNL1        0.1496
     20 C         140.5885  145.8587  157.7888 C.3     1  UNL1        0.0230
     21 C         140.5091  145.1406  159.1033 C.3     1  UNL1        0.0896
     22 C         140.5749  141.7181  168.3246 C.3     1  UNL1        0.0900
     23 C         140.0329  140.3199  168.2876 C.3     1  UNL1        0.0359
     24 C         139.9320  139.5889  166.9817 C.ar    1  UNL1       -0.0215
     25 C         138.5856  139.2509  166.4135 C.ar    1  UNL1       -0.0011
     26 C         138.4847  138.5199  165.1076 C.ar    1  UNL1        0.0369
     27 C         139.7302  138.1269  164.3698 C.ar    1  UNL1        0.1468
     28 C         141.0767  138.4649  164.9380 C.ar    1  UNL1        0.0369
     29 C         141.1776  139.1960  166.2440 C.ar    1  UNL1       -0.0011
     30 O         139.6293  137.3959  163.0639 O.3     1  UNL1       -0.4045
     31 C         139.2581  138.1392  161.8151 C.3     1  UNL1        0.5753
     32 F         138.8870  138.8826  160.5661 F       1  UNL1       -0.1328
     33 F         137.8266  137.7297  161.9968 F       1  UNL1       -0.1328
     34 F         140.6896  138.5487  161.6333 F       1  UNL1       -0.1328
@<TRIPOS>BOND
     1    20    21    1
     2    21    18    1
     3    18     1    1
     4     1     2   ar
     5     2     3   ar
     6     3     4   ar
     7     4     5   ar
     8     5    13    1
     9    13    14   am
    10    13    15    2
    11     5     6   ar
    12     4     7    1
    13     7     8    1
    14     8     9   am
    15     9    10    2
    16     9    22    1
    17    22    23    1
    18    23    24    1
    19    24    25   ar
    20    25    26   ar
    21    26    27   ar
    22    27    30    1
    23    30    31    1
    24    31    32    1
    25    31    33    1
    26    31    34    1
    27    27    28   ar
    28    28    29   ar
    29     8    11    1
    30    11    12    1
    31     6     1   ar
    32    29    24   ar
    33    12     3    1
    34    18    19    1
    35    14    16    1
    36    14    17    1
@<TRIPOS>MOLECULE
*****
 34 36 0 0 0
SMALL
GASTEIGER

@<TRIPOS>ATOM
      1 C         140.4247  145.2000  160.5512 C.ar    1  UNL1        0.2167
      2 N         139.5171  145.2223  161.7452 N.ar    1  UNL1       -0.2184
      3 C         139.9465  144.5701  163.0260 C.ar    1  UNL1        0.0628
      4 C         141.2835  143.8957  163.1128 C.ar    1  UNL1        0.0336
      5 C         142.1911  143.8734  161.9187 C.ar    1  UNL1        0.1358
      6 N         141.7617  144.5255  160.6380 N.ar    1  UNL1       -0.2095
      7 C         141.7129  143.2436  164.3935 C.3     1  UNL1        0.1229
      8 N         140.8052  143.2659  165.5875 N.am    1  UNL1       -0.2749
      9 C         141.2346  142.6137  166.8683 C.2     1  UNL1        0.2262
     10 O         140.3270  142.6361  168.0623 O.2     1  UNL1       -0.2748
     11 C         139.4682  143.9403  165.5008 C.3     1  UNL1        0.1000
     12 C         139.0388  144.5925  164.2200 C.3     1  UNL1        0.0672
     13 C         143.5281  143.1989  162.0054 C.2     1  UNL1        0.2604
     14 N         144.7712  144.0185  162.1872 N.am    1  UNL1       -0.3241
     15 O         143.6220  141.7049  161.9103 O.2     1  UNL1       -0.2687
     16 H         144.7095  144.9991  162.2496 H       1  UNL1        0.1453
     17 H         145.6487  143.5758  162.2441 H       1  UNL1        0.1453
     18 N         139.9953  145.8521  159.2704 N.pl3   1  UNL1       -0.3030
     19 H         139.3424  146.5887  159.2878 H       1  UNL1        0.1496
     20 C         141.8446  145.9629  157.4489 C.3     1  UNL1        0.0230
     21 C         140.5608  145.3819  157.9631 C.3     1  UNL1        0.0896
     22 C         142.5716  141.9393  166.9551 C.3     1  UNL1        0.0900
     23 C         142.6579  140.4418  166.9510 C.3     1  UNL1        0.0359
     24 C         142.0612  139.6592  165.8190 C.ar    1  UNL1       -0.0215
     25 C         142.8968  139.3173  164.6212 C.ar    1  UNL1       -0.0011
     26 C         142.3002  138.5347  163.4892 C.ar    1  UNL1        0.0369
     27 C         140.8679  138.0940  163.5550 C.ar    1  UNL1        0.1468
     28 C         140.0322  138.4359  164.7528 C.ar    1  UNL1        0.0369
     29 C         140.6289  139.2185  165.8849 C.ar    1  UNL1       -0.0011
     30 O         140.2712  137.3113  162.4229 O.3     1  UNL1       -0.4045
     31 C         139.4233  138.0036  161.3975 C.3     1  UNL1        0.5753
     32 F         138.5752  138.6960  160.3720 F       1  UNL1       -0.1328
     33 F         140.6548  138.3564  160.6173 F       1  UNL1       -0.1328
     34 F         138.1917  137.6508  162.1777 F       1  UNL1       -0.1328
@<TRIPOS>BOND
     1    20    21    1
     2    21    18    1
     3    18     1    1
     4     1     2   ar
     5     2     3   ar
     6     3     4   ar
     7     4     5   ar
     8     5    13    1
     9    13    14   am
    10    13    15    2
    11     5     6   ar
    12     4     7    1
    13     7     8    1
    14     8     9   am
    15     9    10    2
    16     9    22    1
    17    22    23    1
    18    23    24    1
    19    24    25   ar
    20    25    26   ar
    21    26    27   ar
    22    27    30    1
    23    30    31    1
    24    31    32    1
    25    31    33    1
    26    31    34    1
    27    27    28   ar
    28    28    29   ar
    29     8    11    1
    30    11    12    1
    31     6     1   ar
    32    29    24   ar
    33    12     3    1
    34    18    19    1
    35    14    16    1
    36    14    17    1
@<TRIPOS>MOLECULE
*****
 34 36 0 0 0
SMALL
GASTEIGER

@<TRIPOS>ATOM
      1 C         140.9511  144.9371  158.7737 C.ar    1  UNL1        0.2167
      2 N         140.8123  145.2632  160.2312 N.ar    1  UNL1       -0.2184
      3 C         141.7275  144.6241  161.2332 C.ar    1  UNL1        0.0628
      4 C         142.7816  143.6589  160.7776 C.ar    1  UNL1        0.0336
      5 C         142.9204  143.3329  159.3200 C.ar    1  UNL1        0.1358
      6 N         142.0051  143.9720  158.3180 N.ar    1  UNL1       -0.2095
      7 C         143.6968  143.0199  161.7795 C.3     1  UNL1        0.1229
      8 N         143.5580  143.3459  163.2370 N.am    1  UNL1       -0.2749
      9 C         144.4732  142.7068  164.2390 C.2     1  UNL1        0.2262
     10 O         144.3344  143.0328  165.6965 O.2     1  UNL1       -0.2748
     11 C         142.5040  144.3110  163.6926 C.3     1  UNL1        0.1000
     12 C         141.5887  144.9501  162.6907 C.3     1  UNL1        0.0672
     13 C         143.9744  142.3678  158.8644 C.2     1  UNL1        0.2604
     14 N         145.1787  142.8675  158.1228 N.am    1  UNL1       -0.3241
     15 O         143.8240  140.9030  159.1503 O.2     1  UNL1       -0.2687
     16 H         145.2774  143.8289  157.9352 H       1  UNL1        0.1453
     17 H         145.8705  142.2341  157.8238 H       1  UNL1        0.1453
     18 N         140.0358  145.5762  157.7716 N.pl3   1  UNL1       -0.3030
     19 H         139.0611  145.5473  157.9066 H       1  UNL1        0.1496
     20 C         139.7073  146.6451  155.4266 C.3     1  UNL1        0.0230
     21 C         140.6058  146.2594  156.5640 C.3     1  UNL1        0.0896
     22 C         145.5273  141.7417  163.7834 C.3     1  UNL1        0.0900
     23 C         145.4712  140.3081  164.2212 C.3     1  UNL1        0.0359
     24 C         144.2628  139.4757  163.9103 C.ar    1  UNL1       -0.0215
     25 C         143.9954  139.0388  162.5005 C.ar    1  UNL1       -0.0011
     26 C         142.7869  138.2064  162.1897 C.ar    1  UNL1        0.0369
     27 C         141.8458  137.8108  163.2887 C.ar    1  UNL1        0.1468
     28 C         142.1131  138.2476  164.6986 C.ar    1  UNL1        0.0369
     29 C         143.3216  139.0801  165.0094 C.ar    1  UNL1       -0.0011
     30 O         140.6373  136.9783  162.9778 O.3     1  UNL1       -0.4045
     31 C         139.3026  137.6357  162.7871 C.3     1  UNL1        0.5753
     32 F         137.9679  138.2931  162.5963 F       1  UNL1       -0.1328
     33 F         139.5982  137.8122  161.3271 F       1  UNL1       -0.1328
     34 F         139.0070  137.4592  164.2470 F       1  UNL1       -0.1328
@<TRIPOS>BOND
     1    20    21    1
     2    21    18    1
     3    18     1    1
     4     1     2   ar
     5     2     3   ar
     6     3     4   ar
     7     4     5   ar
     8     5    13    1
     9    13    14   am
    10    13    15    2
    11     5     6   ar
    12     4     7    1
    13     7     8    1
    14     8     9   am
    15     9    10    2
    16     9    22    1
    17    22    23    1
    18    23    24    1
    19    24    25   ar
    20    25    26   ar
    21    26    27   ar
    22    27    30    1
    23    30    31    1
    24    31    32    1
    25    31    33    1
    26    31    34    1
    27    27    28   ar
    28    28    29   ar
    29     8    11    1
    30    11    12    1
    31     6     1   ar
    32    29    24   ar
    33    12     3    1
    34    18    19    1
    35    14    16    1
    36    14    17    1
@<TRIPOS>MOLECULE
*****
 34 36 0 0 0
SMALL
GASTEIGER

@<TRIPOS>ATOM
      1 C         138.4414  142.2992  159.2826 C.ar    1  UNL1        0.2167
      2 N         138.3926  140.8218  159.5373 N.ar    1  UNL1       -0.2184
      3 C         138.4440  140.3010  160.9431 C.ar    1  UNL1        0.0628
      4 C         138.5443  141.2576  162.0941 C.ar    1  UNL1        0.0336
      5 C         138.5931  142.7351  161.8393 C.ar    1  UNL1        0.1358
      6 N         138.5416  143.2558  160.4336 N.ar    1  UNL1       -0.2095
      7 C         138.5957  140.7369  163.4999 C.3     1  UNL1        0.1229
      8 N         138.5470  139.2595  163.7546 N.am    1  UNL1       -0.2749
      9 C         138.5984  138.7387  165.1604 C.2     1  UNL1        0.2262
     10 O         138.5496  137.2613  165.4151 O.2     1  UNL1       -0.2748
     11 C         138.4467  138.3029  162.6036 C.3     1  UNL1        0.1000
     12 C         138.3953  138.8236  161.1979 C.3     1  UNL1        0.0672
     13 C         138.6933  143.6917  162.9904 C.2     1  UNL1        0.2604
     14 N         140.0390  144.0870  163.5220 N.am    1  UNL1       -0.3241
     15 O         137.4477  144.2530  163.6097 O.2     1  UNL1       -0.2687
     16 H         140.8565  143.7186  163.1155 H       1  UNL1        0.1453
     17 H         140.1048  144.7149  164.2775 H       1  UNL1        0.1453
     18 N         138.3899  142.8200  157.8768 N.pl3   1  UNL1       -0.3030
     19 H         139.0735  143.4545  157.5616 H       1  UNL1        0.1496
     20 C         136.9139  143.2259  155.7776 C.3     1  UNL1        0.0230
     21 C         137.2969  142.3741  156.9514 C.3     1  UNL1        0.0896
     22 C         138.6986  139.6953  166.3114 C.3     1  UNL1        0.0900
     23 C         139.9953  139.8466  167.0501 C.3     1  UNL1        0.0359
     24 C         141.2820  139.9701  166.2892 C.ar    1  UNL1       -0.0215
     25 C         142.1281  138.7559  166.0446 C.ar    1  UNL1       -0.0011
     26 C         143.4149  138.8793  165.2836 C.ar    1  UNL1        0.0369
     27 C         143.8555  140.2169  164.7673 C.ar    1  UNL1        0.1468
     28 C         143.0094  141.4312  165.0119 C.ar    1  UNL1        0.0369
     29 C         141.7227  141.3077  165.7729 C.ar    1  UNL1       -0.0011
     30 O         145.1423  140.3403  164.0064 O.3     1  UNL1       -0.4045
     31 C         145.2102  141.2058  162.7832 C.3     1  UNL1        0.5753
     32 F         145.2782  142.0714  161.5600 F       1  UNL1       -0.1328
     33 F         146.1346  142.1453  163.4994 F       1  UNL1       -0.1328
     34 F         144.2859  140.2664  162.0671 F       1  UNL1       -0.1328
@<TRIPOS>BOND
     1    20    21    1
     2    21    18    1
     3    18     1    1
     4     1     2   ar
     5     2     3   ar
     6     3     4   ar
     7     4     5   ar
     8     5    13    1
     9    13    14   am
    10    13    15    2
    11     5     6   ar
    12     4     7    1
    13     7     8    1
    14     8     9   am
    15     9    10    2
    16     9    22    1
    17    22    23    1
    18    23    24    1
    19    24    25   ar
    20    25    26   ar
    21    26    27   ar
    22    27    30    1
    23    30    31    1
    24    31    32    1
    25    31    33    1
    26    31    34    1
    27    27    28   ar
    28    28    29   ar
    29     8    11    1
    30    11    12    1
    31     6     1   ar
    32    29    24   ar
    33    12     3    1
    34    18    19    1
    35    14    16    1
    36    14    17    1
@<TRIPOS>MOLECULE
*****
 34 36 0 0 0
SMALL
GASTEIGER

@<TRIPOS>ATOM
      1 C         141.5231  144.8093  160.2200 C.ar    1  UNL1        0.2167
      2 N         142.6356  144.6528  161.2139 N.ar    1  UNL1       -0.2184
      3 C         142.3557  144.0698  162.5674 C.ar    1  UNL1        0.0628
      4 C         140.9633  143.6433  162.9269 C.ar    1  UNL1        0.0336
      5 C         139.8508  143.7998  161.9329 C.ar    1  UNL1        0.1358
      6 N         140.1307  144.3828  160.5795 N.ar    1  UNL1       -0.2095
      7 C         140.6833  143.0603  164.2803 C.3     1  UNL1        0.1229
      8 N         141.7958  142.9039  165.2742 N.am    1  UNL1       -0.2749
      9 C         141.5159  142.3209  166.6277 C.2     1  UNL1        0.2262
     10 O         142.6284  142.1644  167.6216 O.2     1  UNL1       -0.2748
     11 C         143.1882  143.3304  164.9147 C.3     1  UNL1        0.1000
     12 C         143.4682  143.9133  163.5613 C.3     1  UNL1        0.0672
     13 C         138.4583  143.3733  162.2924 C.2     1  UNL1        0.2604
     14 N         137.4640  144.3878  162.7740 N.am    1  UNL1       -0.3241
     15 O         138.0603  141.9322  162.1704 O.2     1  UNL1       -0.2687
     16 H         137.7252  145.3336  162.8541 H       1  UNL1        0.1453
     17 H         136.5501  144.1079  163.0099 H       1  UNL1        0.1453
     18 N         141.8031  145.3923  158.8666 N.pl3   1  UNL1       -0.3030
     19 H         141.6420  146.3491  158.6998 H       1  UNL1        0.1496
     20 C         143.0283  143.2332  158.1002 C.3     1  UNL1        0.0230
     21 C         142.3283  144.5174  157.7672 C.3     1  UNL1        0.0896
     22 C         140.1235  141.8944  166.9872 C.3     1  UNL1        0.0900
     23 C         139.7317  140.4500  166.8858 C.3     1  UNL1        0.0359
     24 C         140.1488  139.6417  165.6930 C.ar    1  UNL1       -0.0215
     25 C         141.4295  138.8616  165.7263 C.ar    1  UNL1       -0.0011
     26 C         141.8466  138.0533  164.5335 C.ar    1  UNL1        0.0369
     27 C         140.9830  138.0252  163.3075 C.ar    1  UNL1        0.1468
     28 C         139.7022  138.8053  163.2741 C.ar    1  UNL1        0.0369
     29 C         139.2851  139.6136  164.4669 C.ar    1  UNL1       -0.0011
     30 O         141.4001  137.2169  162.1147 O.3     1  UNL1       -0.4045
     31 C         142.2179  137.8501  161.0284 C.3     1  UNL1        0.5753
     32 F         143.0359  138.4834  159.9421 F       1  UNL1       -0.1328
     33 F         140.9653  138.1479  160.2589 F       1  UNL1       -0.1328
     34 F         143.4706  137.5523  161.7979 F       1  UNL1       -0.1328
@<TRIPOS>BOND
     1    20    21    1
     2    21    18    1
     3    18     1    1
     4     1     2   ar
     5     2     3   ar
     6     3     4   ar
     7     4     5   ar
     8     5    13    1
     9    13    14   am
    10    13    15    2
    11     5     6   ar
    12     4     7    1
    13     7     8    1
    14     8     9   am
    15     9    10    2
    16     9    22    1
    17    22    23    1
    18    23    24    1
    19    24    25   ar
    20    25    26   ar
    21    26    27   ar
    22    27    30    1
    23    30    31    1
    24    31    32    1
    25    31    33    1
    26    31    34    1
    27    27    28   ar
    28    28    29   ar
    29     8    11    1
    30    11    12    1
    31     6     1   ar
    32    29    24   ar
    33    12     3    1
    34    18    19    1
    35    14    16    1
    36    14    17    1
@<TRIPOS>MOLECULE
*****
 34 36 0 0 0
SMALL
GASTEIGER

@<TRIPOS>ATOM
      1 C         141.3501  140.2218  168.3358 C.ar    1  UNL1        0.2167
      2 N         142.6537  140.1184  167.6011 N.ar    1  UNL1       -0.2184
      3 C         142.6742  139.6734  166.1688 C.ar    1  UNL1        0.0628
      4 C         141.3909  139.3318  165.4712 C.ar    1  UNL1        0.0336
      5 C         140.0873  139.4353  166.2060 C.ar    1  UNL1        0.1358
      6 N         140.0669  139.8803  167.6382 N.ar    1  UNL1       -0.2095
      7 C         141.4113  138.8868  164.0389 C.3     1  UNL1        0.1229
      8 N         142.7149  138.7834  163.3042 N.am    1  UNL1       -0.2749
      9 C         142.7354  138.3384  161.8718 C.2     1  UNL1        0.2262
     10 O         144.0390  138.2350  161.1371 O.2     1  UNL1       -0.2748
     11 C         143.9982  139.1250  164.0018 C.3     1  UNL1        0.1000
     12 C         143.9778  139.5700  165.4341 C.3     1  UNL1        0.0672
     13 C         138.8040  139.0937  165.5084 C.2     1  UNL1        0.2604
     14 N         137.8910  140.1876  165.0396 N.am    1  UNL1       -0.3241
     15 O         138.4338  137.6582  165.2796 O.2     1  UNL1       -0.2687
     16 H         138.1340  141.1297  165.1897 H       1  UNL1        0.1453
     17 H         137.0488  139.9634  164.5817 H       1  UNL1        0.1453
     18 N         141.3297  140.6669  169.7682 N.pl3   1  UNL1       -0.3030
     19 H         141.4554  140.0091  170.4899 H       1  UNL1        0.1496
     20 C         140.5732  143.0503  169.0633 C.3     1  UNL1        0.0230
     21 C         141.1177  142.1140  170.1010 C.3     1  UNL1        0.0896
     22 C         141.4521  137.9968  161.1742 C.3     1  UNL1        0.0900
     23 C         140.7866  139.0093  160.2900 C.3     1  UNL1        0.0359
     24 C         139.9835  140.1218  160.8961 C.ar    1  UNL1       -0.0215
     25 C         138.4987  139.9767  161.0513 C.ar    1  UNL1       -0.0011
     26 C         137.6956  141.0892  161.6574 C.ar    1  UNL1        0.0369
     27 C         138.3773  142.3468  162.1083 C.ar    1  UNL1        0.1468
     28 C         139.8622  142.4921  161.9532 C.ar    1  UNL1        0.0369
     29 C         140.6653  141.3796  161.3471 C.ar    1  UNL1       -0.0011
     30 O         137.5742  143.4594  162.7145 O.3     1  UNL1       -0.4045
     31 C         138.1758  144.3224  163.7836 C.3     1  UNL1        0.5753
     32 F         138.7775  145.1854  164.8529 F       1  UNL1       -0.1328
     33 F         138.7448  145.2283  162.7322 F       1  UNL1       -0.1328
     34 F         137.6068  143.4165  164.8350 F       1  UNL1       -0.1328
@<TRIPOS>BOND
     1    20    21    1
     2    21    18    1
     3    18     1    1
     4     1     2   ar
     5     2     3   ar
     6     3     4   ar
     7     4     5   ar
     8     5    13    1
     9    13    14   am
    10    13    15    2
    11     5     6   ar
    12     4     7    1
    13     7     8    1
    14     8     9   am
    15     9    10    2
    16     9    22    1
    17    22    23    1
    18    23    24    1
    19    24    25   ar
    20    25    26   ar
    21    26    27   ar
    22    27    30    1
    23    30    31    1
    24    31    32    1
    25    31    33    1
    26    31    34    1
    27    27    28   ar
    28    28    29   ar
    29     8    11    1
    30    11    12    1
    31     6     1   ar
    32    29    24   ar
    33    12     3    1
    34    18    19    1
    35    14    16    1
    36    14    17    1
@<TRIPOS>MOLECULE
*****
 34 36 0 0 0
SMALL
GASTEIGER

@<TRIPOS>ATOM
      1 C         139.6207  144.0543  161.1880 C.ar    1  UNL1        0.2167
      2 N         139.8298  144.2054  162.6656 N.ar    1  UNL1       -0.2184
      3 C         139.5859  143.0420  163.5806 C.ar    1  UNL1        0.0628
      4 C         139.1329  141.7274  163.0178 C.ar    1  UNL1        0.0336
      5 C         138.9238  141.5763  161.5401 C.ar    1  UNL1        0.1358
      6 N         139.1676  142.7397  160.6253 N.ar    1  UNL1       -0.2095
      7 C         138.8891  140.5640  163.9326 C.3     1  UNL1        0.1229
      8 N         139.0982  140.7152  165.4102 N.am    1  UNL1       -0.2749
      9 C         138.8543  139.5517  166.3252 C.2     1  UNL1        0.2262
     10 O         139.0635  139.7029  167.8028 O.2     1  UNL1       -0.2748
     11 C         139.5512  142.0298  165.9730 C.3     1  UNL1        0.1000
     12 C         139.7951  143.1932  165.0582 C.3     1  UNL1        0.0672
     13 C         138.4708  140.2617  160.9773 C.2     1  UNL1        0.2604
     14 N         137.0356  139.8453  161.1063 N.am    1  UNL1       -0.3241
     15 O         139.4531  139.3636  160.2856 O.2     1  UNL1       -0.2687
     16 H         136.3909  140.4348  161.5604 H       1  UNL1        0.1453
     17 H         136.7382  138.9825  160.7370 H       1  UNL1        0.1453
     18 N         139.8645  145.2177  160.2731 N.pl3   1  UNL1       -0.3030
     19 H         139.1534  145.8811  160.1201 H       1  UNL1        0.1496
     20 C         141.8689  144.1737  158.9915 C.3     1  UNL1        0.0230
     21 C         141.1919  145.3703  159.5913 C.3     1  UNL1        0.0896
     22 C         138.4013  138.2372  165.7624 C.3     1  UNL1        0.0900
     23 C         139.4131  137.2241  165.3153 C.3     1  UNL1        0.0359
     24 C         140.6482  137.6678  164.5889 C.ar    1  UNL1       -0.0215
     25 C         140.7491  137.4895  163.1029 C.ar    1  UNL1       -0.0011
     26 C         141.9842  137.9332  162.3765 C.ar    1  UNL1        0.0369
     27 C         143.1184  138.5551  163.1360 C.ar    1  UNL1        0.1468
     28 C         143.0175  138.7334  164.6220 C.ar    1  UNL1        0.0369
     29 C         141.7824  138.2897  165.3484 C.ar    1  UNL1       -0.0011
     30 O         144.3535  138.9987  162.4095 O.3     1  UNL1       -0.4045
     31 C         144.6769  140.4595  162.3028 C.3     1  UNL1        0.5753
     32 F         145.0003  141.9204  162.1961 F       1  UNL1       -0.1328
     33 F         143.7701  140.5734  161.1134 F       1  UNL1       -0.1328
     34 F         145.5836  140.3457  163.4922 F       1  UNL1       -0.1328
@<TRIPOS>BOND
     1    20    21    1
     2    21    18    1
     3    18     1    1
     4     1     2   ar
     5     2     3   ar
     6     3     4   ar
     7     4     5   ar
     8     5    13    1
     9    13    14   am
    10    13    15    2
    11     5     6   ar
    12     4     7    1
    13     7     8    1
    14     8     9   am
    15     9    10    2
    16     9    22    1
    17    22    23    1
    18    23    24    1
    19    24    25   ar
    20    25    26   ar
    21    26    27   ar
    22    27    30    1
    23    30    31    1
    24    31    32    1
    25    31    33    1
    26    31    34    1
    27    27    28   ar
    28    28    29   ar
    29     8    11    1
    30    11    12    1
    31     6     1   ar
    32    29    24   ar
    33    12     3    1
    34    18    19    1
    35    14    16    1
    36    14    17    1
@<TRIPOS>MOLECULE
*****
 34 36 0 0 0
SMALL
GASTEIGER

@<TRIPOS>ATOM
      1 C         139.9445  139.7493  158.7562 C.ar    1  UNL1        0.2167
      2 N         140.4810  138.7441  159.7317 N.ar    1  UNL1       -0.2184
      3 C         141.5692  139.1336  160.6879 C.ar    1  UNL1        0.0628
      4 C         142.1208  140.5283  160.6685 C.ar    1  UNL1        0.0336
      5 C         141.5843  141.5336  159.6929 C.ar    1  UNL1        0.1358
      6 N         140.4962  141.1441  158.7368 N.ar    1  UNL1       -0.2095
      7 C         143.2090  140.9179  161.6247 C.3     1  UNL1        0.1229
      8 N         143.7454  139.9126  162.6002 N.am    1  UNL1       -0.2749
      9 C         144.8336  140.3021  163.5564 C.2     1  UNL1        0.2262
     10 O         145.3701  139.2969  164.5319 O.2     1  UNL1       -0.2748
     11 C         143.1938  138.5179  162.6196 C.3     1  UNL1        0.1000
     12 C         142.1057  138.1284  161.6634 C.3     1  UNL1        0.0672
     13 C         142.1360  142.9283  159.6736 C.2     1  UNL1        0.2604
     14 N         143.2916  143.2654  158.7787 N.am    1  UNL1       -0.3241
     15 O         141.5319  143.9860  160.5491 O.2     1  UNL1       -0.2687
     16 H         143.6881  142.5712  158.2041 H       1  UNL1        0.1453
     17 H         143.6537  144.1808  158.7660 H       1  UNL1        0.1453
     18 N         138.8564  139.3598  157.8000 N.pl3   1  UNL1       -0.3030
     19 H         137.9762  139.0822  158.1426 H       1  UNL1        0.1496
     20 C         138.6828  140.5837  155.5148 C.3     1  UNL1        0.0230
     21 C         139.1093  139.3934  156.3219 C.3     1  UNL1        0.0896
     22 C         145.3853  141.6969  163.5370 C.3     1  UNL1        0.0900
     23 C         144.9445  142.6922  164.5690 C.3     1  UNL1        0.0359
     24 C         143.5788  143.3067  164.4831 C.ar    1  UNL1       -0.0215
     25 C         142.3878  142.5646  165.0128 C.ar    1  UNL1       -0.0011
     26 C         141.0222  143.1792  164.9270 C.ar    1  UNL1        0.0369
     27 C         140.8476  144.5358  164.3114 C.ar    1  UNL1        0.1468
     28 C         142.0387  145.2780  163.7816 C.ar    1  UNL1        0.0369
     29 C         143.4043  144.6634  163.8675 C.ar    1  UNL1       -0.0011
     30 O         139.4820  145.1504  164.2255 O.3     1  UNL1       -0.4045
     31 C         138.3703  144.4146  163.5379 C.3     1  UNL1        0.5753
     32 F         137.2586  143.6789  162.8503 F       1  UNL1       -0.1328
     33 F         137.7457  144.1150  164.8684 F       1  UNL1       -0.1328
     34 F         138.9949  144.7143  162.2075 F       1  UNL1       -0.1328
@<TRIPOS>BOND
     1    20    21    1
     2    21    18    1
     3    18     1    1
     4     1     2   ar
     5     2     3   ar
     6     3     4   ar
     7     4     5   ar
     8     5    13    1
     9    13    14   am
    10    13    15    2
    11     5     6   ar
    12     4     7    1
    13     7     8    1
    14     8     9   am
    15     9    10    2
    16     9    22    1
    17    22    23    1
    18    23    24    1
    19    24    25   ar
    20    25    26   ar
    21    26    27   ar
    22    27    30    1
    23    30    31    1
    24    31    32    1
    25    31    33    1
    26    31    34    1
    27    27    28   ar
    28    28    29   ar
    29     8    11    1
    30    11    12    1
    31     6     1   ar
    32    29    24   ar
    33    12     3    1
    34    18    19    1
    35    14    16    1
    36    14    17    1
