@<TRIPOS>MOLECULE
*****
 21 24 0 0 0
SMALL
GASTEIGER

@<TRIPOS>ATOM
      1 C         140.2942  141.6070  166.7228 C.3     1  UNL1        0.0492
      2 C         139.7779  140.3122  167.2765 C.3     1  UNL1        0.0214
      3 C         139.4506  140.7088  165.8674 C.3     1  UNL1        0.1132
      4 C         141.0561  144.9605  163.8204 C.ar    1  UNL1       -0.0000
      5 C         142.1044  143.9119  164.0469 C.ar    1  UNL1       -0.0003
      6 C         141.8505  142.7941  165.0143 C.ar    1  UNL1       -0.0040
      7 C         140.5482  142.7249  165.7553 C.ar    1  UNL1       -0.0185
      8 C         139.4998  143.7735  165.5289 C.ar    1  UNL1       -0.0040
      9 C         139.7538  144.8913  164.5614 C.ar    1  UNL1       -0.0003
     10 C         141.0495  142.1170  167.9142 C.ar    1  UNL1       -0.0185
     11 C         140.4072  143.1038  168.8433 C.ar    1  UNL1       -0.0040
     12 C         141.1626  143.6138  170.0348 C.ar    1  UNL1       -0.0003
     13 C         142.5603  143.1368  170.2969 C.ar    1  UNL1       -0.0000
     14 C         143.2027  142.1499  169.3677 C.ar    1  UNL1       -0.0003
     15 C         142.4473  141.6400  168.1764 C.ar    1  UNL1       -0.0040
     16 C         138.7746  140.4194  164.5600 C.2     1  UNL1        0.2920
     17 N         139.0496  139.2468  163.6660 N.2     1  UNL1       -0.0652
     18 C         138.1500  139.3544  162.4705 C.3     1  UNL1        0.3129
     19 C         137.3190  140.5934  162.6258 C.3     1  UNL1        0.2574
     20 N         137.7050  141.2517  163.9172 N.pl3   1  UNL1       -0.2190
     21 H         137.3234  142.0838  164.2793 H       1  UNL1        0.2920
@<TRIPOS>BOND
     1     4     5   ar
     2     5     6   ar
     3     6     7   ar
     4     7     1    1
     5     1    10    1
     6    10    11   ar
     7    11    12   ar
     8    12    13   ar
     9    13    14   ar
    10    14    15   ar
    11     1     2    1
    12     2     3    1
    13     3    16    1
    14    16    17    2
    15    17    18    1
    16    18    19    1
    17    19    20    1
    18     7     8   ar
    19     8     9   ar
    20     9     4   ar
    21     3     1    1
    22    20    16    1
    23    15    10   ar
    24    20    21    1
@<TRIPOS>MOLECULE
*****
 21 24 0 0 0
SMALL
GASTEIGER

@<TRIPOS>ATOM
      1 C         139.3107  139.7658  166.3198 C.3     1  UNL1        0.0492
      2 C         138.2210  139.0931  167.1007 C.3     1  UNL1        0.0214
      3 C         139.2657  139.8999  167.8131 C.3     1  UNL1        0.1132
      4 C         142.9749  142.2199  165.4248 C.ar    1  UNL1       -0.0000
      5 C         141.6306  142.8807  165.5038 C.ar    1  UNL1       -0.0003
      6 C         140.4092  142.0626  165.8021 C.ar    1  UNL1       -0.0040
      7 C         140.5321  140.5839  166.0215 C.ar    1  UNL1       -0.0185
      8 C         141.8764  139.9232  165.9424 C.ar    1  UNL1       -0.0040
      9 C         143.0978  140.7412  165.6441 C.ar    1  UNL1       -0.0003
     10 C         138.9314  139.3476  164.9301 C.ar    1  UNL1       -0.0185
     11 C         138.2299  140.3131  164.0215 C.ar    1  UNL1       -0.0040
     12 C         137.8506  139.8948  162.6317 C.ar    1  UNL1       -0.0003
     13 C         138.1730  138.5111  162.1507 C.ar    1  UNL1       -0.0000
     14 C         138.8746  137.5456  163.0594 C.ar    1  UNL1       -0.0003
     15 C         139.2538  137.9639  164.4490 C.ar    1  UNL1       -0.0040
     16 C         139.8430  140.4433  169.0866 C.2     1  UNL1        0.2920
     17 N         139.9972  141.8937  169.4363 N.2     1  UNL1       -0.0652
     18 C         140.6168  141.9784  170.7996 C.3     1  UNL1        0.3129
     19 C         140.8456  140.5804  171.2925 C.3     1  UNL1        0.2574
     20 N         140.3673  139.6315  170.2338 N.pl3   1  UNL1       -0.2190
     21 H         140.3930  138.6486  170.2832 H       1  UNL1        0.2920
@<TRIPOS>BOND
     1     4     5   ar
     2     5     6   ar
     3     6     7   ar
     4     7     1    1
     5     1    10    1
     6    10    11   ar
     7    11    12   ar
     8    12    13   ar
     9    13    14   ar
    10    14    15   ar
    11     1     2    1
    12     2     3    1
    13     3    16    1
    14    16    17    2
    15    17    18    1
    16    18    19    1
    17    19    20    1
    18     7     8   ar
    19     8     9   ar
    20     9     4   ar
    21     3     1    1
    22    20    16    1
    23    15    10   ar
    24    20    21    1
@<TRIPOS>MOLECULE
*****
 21 24 0 0 0
SMALL
GASTEIGER

@<TRIPOS>ATOM
      1 C         139.3022  139.7727  166.3331 C.3     1  UNL1        0.0492
      2 C         138.2269  139.0794  167.1160 C.3     1  UNL1        0.0214
      3 C         139.2621  139.8994  167.8272 C.3     1  UNL1        0.1132
      4 C         142.9234  142.2878  165.4324 C.ar    1  UNL1       -0.0000
      5 C         143.0704  140.8103  165.6445 C.ar    1  UNL1       -0.0003
      6 C         141.8634  139.9719  165.9447 C.ar    1  UNL1       -0.0040
      7 C         140.5093  140.6111  166.0329 C.ar    1  UNL1       -0.0185
      8 C         140.3622  142.0886  165.8208 C.ar    1  UNL1       -0.0040
      9 C         141.5693  142.9270  165.5205 C.ar    1  UNL1       -0.0003
     10 C         138.9231  139.3547  164.9433 C.ar    1  UNL1       -0.0185
     11 C         139.2540  137.9743  164.4588 C.ar    1  UNL1       -0.0040
     12 C         138.8748  137.5563  163.0689 C.ar    1  UNL1       -0.0003
     13 C         138.1648  138.5188  162.1637 C.ar    1  UNL1       -0.0000
     14 C         137.8339  139.8993  162.6483 C.ar    1  UNL1       -0.0003
     15 C         138.2131  140.3172  164.0381 C.ar    1  UNL1       -0.0040
     16 C         139.8368  140.4461  169.1005 C.2     1  UNL1        0.2920
     17 N         139.9883  141.8975  169.4476 N.2     1  UNL1       -0.0652
     18 C         140.6059  141.9858  170.8117 C.3     1  UNL1        0.3129
     19 C         140.8361  140.5890  171.3076 C.3     1  UNL1        0.2574
     20 N         140.3607  139.6374  170.2500 N.pl3   1  UNL1       -0.2190
     21 H         140.3879  138.6546  170.3013 H       1  UNL1        0.2920
@<TRIPOS>BOND
     1     4     5   ar
     2     5     6   ar
     3     6     7   ar
     4     7     1    1
     5     1    10    1
     6    10    11   ar
     7    11    12   ar
     8    12    13   ar
     9    13    14   ar
    10    14    15   ar
    11     1     2    1
    12     2     3    1
    13     3    16    1
    14    16    17    2
    15    17    18    1
    16    18    19    1
    17    19    20    1
    18     7     8   ar
    19     8     9   ar
    20     9     4   ar
    21     3     1    1
    22    20    16    1
    23    15    10   ar
    24    20    21    1
@<TRIPOS>MOLECULE
*****
 21 24 0 0 0
SMALL
GASTEIGER

@<TRIPOS>ATOM
      1 C         141.2894  142.3919  166.5637 C.3     1  UNL1        0.0492
      2 C         142.7133  142.1435  166.9644 C.3     1  UNL1        0.0214
      3 C         142.4007  142.6729  165.5962 C.3     1  UNL1        0.1132
      4 C         137.7482  143.5722  164.0504 C.ar    1  UNL1       -0.0000
      5 C         138.2525  142.1599  164.0194 C.ar    1  UNL1       -0.0003
      6 C         139.4329  141.7665  164.8572 C.ar    1  UNL1       -0.0040
      7 C         140.1090  142.7854  165.7260 C.ar    1  UNL1       -0.0185
      8 C         139.6046  144.1977  165.7569 C.ar    1  UNL1       -0.0040
      9 C         138.4242  144.5911  164.9192 C.ar    1  UNL1       -0.0003
     10 C         140.5881  141.9743  167.8222 C.ar    1  UNL1       -0.0185
     11 C         139.9649  140.6132  167.9171 C.ar    1  UNL1       -0.0040
     12 C         139.2636  140.1955  169.1757 C.ar    1  UNL1       -0.0003
     13 C         139.1854  141.1391  170.3391 C.ar    1  UNL1       -0.0000
     14 C         139.8085  142.5002  170.2441 C.ar    1  UNL1       -0.0003
     15 C         140.5099  142.9178  168.9857 C.ar    1  UNL1       -0.0040
     16 C         142.8618  143.1408  164.2477 C.2     1  UNL1        0.2920
     17 N         142.2339  142.7911  162.9311 N.2     1  UNL1       -0.0652
     18 C         143.0157  143.4747  161.8487 C.3     1  UNL1        0.3129
     19 C         144.1266  144.2468  162.4963 C.3     1  UNL1        0.2574
     20 N         144.0315  144.0405  163.9790 N.pl3   1  UNL1       -0.2190
     21 H         144.6315  144.4276  164.6569 H       1  UNL1        0.2920
@<TRIPOS>BOND
     1     4     5   ar
     2     5     6   ar
     3     6     7   ar
     4     7     1    1
     5     1    10    1
     6    10    11   ar
     7    11    12   ar
     8    12    13   ar
     9    13    14   ar
    10    14    15   ar
    11     1     2    1
    12     2     3    1
    13     3    16    1
    14    16    17    2
    15    17    18    1
    16    18    19    1
    17    19    20    1
    18     7     8   ar
    19     8     9   ar
    20     9     4   ar
    21     3     1    1
    22    20    16    1
    23    15    10   ar
    24    20    21    1
@<TRIPOS>MOLECULE
*****
 21 24 0 0 0
SMALL
GASTEIGER

@<TRIPOS>ATOM
      1 C         141.2936  142.3890  166.5701 C.3     1  UNL1        0.0492
      2 C         142.7162  142.1383  166.9745 C.3     1  UNL1        0.0214
      3 C         142.4080  142.6694  165.6060 C.3     1  UNL1        0.1132
      4 C         137.7609  143.5762  164.0482 C.ar    1  UNL1       -0.0000
      5 C         138.4280  144.5903  164.9294 C.ar    1  UNL1       -0.0003
      6 C         139.6056  144.1946  165.7700 C.ar    1  UNL1       -0.0040
      7 C         140.1161  142.7847  165.7295 C.ar    1  UNL1       -0.0185
      8 C         139.4489  141.7706  164.8483 C.ar    1  UNL1       -0.0040
      9 C         138.2713  142.1664  164.0077 C.ar    1  UNL1       -0.0003
     10 C         140.5883  141.9711  167.8263 C.ar    1  UNL1       -0.0185
     11 C         140.5081  142.9137  168.9903 C.ar    1  UNL1       -0.0040
     12 C         139.8027  142.4958  170.2466 C.ar    1  UNL1       -0.0003
     13 C         139.1777  141.1353  170.3385 C.ar    1  UNL1       -0.0000
     14 C         139.2579  140.1928  169.1744 C.ar    1  UNL1       -0.0003
     15 C         139.9632  140.6106  167.9183 C.ar    1  UNL1       -0.0040
     16 C         142.8734  143.1379  164.2591 C.2     1  UNL1        0.2920
     17 N         143.9426  144.1578  164.0014 N.2     1  UNL1       -0.0652
     18 C         144.0813  144.3190  162.5166 C.3     1  UNL1        0.3129
     19 C         143.0977  143.3987  161.8566 C.3     1  UNL1        0.2574
     20 N         142.3511  142.6687  162.9335 N.pl3   1  UNL1       -0.2190
     21 H         141.6428  141.9992  162.7946 H       1  UNL1        0.2920
@<TRIPOS>BOND
     1     4     5   ar
     2     5     6   ar
     3     6     7   ar
     4     7     1    1
     5     1    10    1
     6    10    11   ar
     7    11    12   ar
     8    12    13   ar
     9    13    14   ar
    10    14    15   ar
    11     1     2    1
    12     2     3    1
    13     3    16    1
    14    16    17    2
    15    17    18    1
    16    18    19    1
    17    19    20    1
    18     7     8   ar
    19     8     9   ar
    20     9     4   ar
    21     3     1    1
    22    20    16    1
    23    15    10   ar
    24    20    21    1
@<TRIPOS>MOLECULE
*****
 21 24 0 0 0
SMALL
GASTEIGER

@<TRIPOS>ATOM
      1 C         141.6996  142.3591  166.4367 C.3     1  UNL1        0.0492
      2 C         140.3482  142.8809  166.8255 C.3     1  UNL1        0.0214
      3 C         140.9062  143.1832  165.4664 C.3     1  UNL1        0.1132
      4 C         145.3701  141.5551  163.9606 C.ar    1  UNL1       -0.0000
      5 C         145.2035  142.8783  164.6470 C.ar    1  UNL1       -0.0003
      6 C         143.9800  143.1463  165.4723 C.ar    1  UNL1       -0.0040
      7 C         142.9231  142.0911  165.6113 C.ar    1  UNL1       -0.0185
      8 C         143.0897  140.7678  164.9249 C.ar    1  UNL1       -0.0040
      9 C         144.3132  140.4998  164.0995 C.ar    1  UNL1       -0.0003
     10 C         142.0680  141.6280  167.6936 C.ar    1  UNL1       -0.0185
     11 C         142.9819  142.2706  168.6945 C.ar    1  UNL1       -0.0040
     12 C         143.3503  141.5396  169.9515 C.ar    1  UNL1       -0.0003
     13 C         142.8048  140.1659  170.2074 C.ar    1  UNL1       -0.0000
     14 C         141.8909  139.5233  169.2065 C.ar    1  UNL1       -0.0003
     15 C         141.5225  140.2544  167.9496 C.ar    1  UNL1       -0.0040
     16 C         140.7704  143.8335  164.1215 C.2     1  UNL1        0.2920
     17 N         140.8215  143.1348  162.7952 N.2     1  UNL1       -0.0652
     18 C         140.6424  144.1661  161.7208 C.3     1  UNL1        0.3129
     19 C         140.4806  145.5021  162.3831 C.3     1  UNL1        0.2574
     20 N         140.5597  145.2966  163.8669 N.pl3   1  UNL1       -0.2190
     21 H         140.4863  145.9988  164.5531 H       1  UNL1        0.2920
@<TRIPOS>BOND
     1     4     5   ar
     2     5     6   ar
     3     6     7   ar
     4     7     1    1
     5     1    10    1
     6    10    11   ar
     7    11    12   ar
     8    12    13   ar
     9    13    14   ar
    10    14    15   ar
    11     1     2    1
    12     2     3    1
    13     3    16    1
    14    16    17    2
    15    17    18    1
    16    18    19    1
    17    19    20    1
    18     7     8   ar
    19     8     9   ar
    20     9     4   ar
    21     3     1    1
    22    20    16    1
    23    15    10   ar
    24    20    21    1
@<TRIPOS>MOLECULE
*****
 21 24 0 0 0
SMALL
GASTEIGER

@<TRIPOS>ATOM
      1 C         140.0611  141.2282  166.8797 C.3     1  UNL1        0.0492
      2 C         140.3707  142.6949  166.8261 C.3     1  UNL1        0.0214
      3 C         139.5756  142.0556  165.7266 C.3     1  UNL1        0.1132
      4 C         138.4297  137.2047  165.6965 C.ar    1  UNL1       -0.0000
      5 C         139.6473  137.7512  165.0119 C.ar    1  UNL1       -0.0003
      6 C         140.1911  139.0924  165.4063 C.ar    1  UNL1       -0.0040
      7 C         139.5173  139.8871  166.4853 C.ar    1  UNL1       -0.0185
      8 C         138.2997  139.3406  167.1700 C.ar    1  UNL1       -0.0040
      9 C         137.7559  137.9994  166.7756 C.ar    1  UNL1       -0.0003
     10 C         140.7355  140.8667  168.1699 C.ar    1  UNL1       -0.0185
     11 C         141.8762  139.8927  168.1727 C.ar    1  UNL1       -0.0040
     12 C         142.5506  139.5312  169.4629 C.ar    1  UNL1       -0.0003
     13 C         142.0843  140.1438  170.7502 C.ar    1  UNL1       -0.0000
     14 C         140.9436  141.1179  170.7474 C.ar    1  UNL1       -0.0003
     15 C         140.2692  141.4794  169.4573 C.ar    1  UNL1       -0.0040
     16 C         138.8361  142.1640  164.4259 C.2     1  UNL1        0.2920
     17 N         139.1464  143.1200  163.3125 N.2     1  UNL1       -0.0652
     18 C         138.1587  142.8824  162.2089 C.3     1  UNL1        0.3129
     19 C         137.2381  141.7795  162.6403 C.3     1  UNL1        0.2574
     20 N         137.6567  141.3355  164.0105 N.pl3   1  UNL1       -0.2190
     21 H         137.2320  140.6251  164.5436 H       1  UNL1        0.2920
@<TRIPOS>BOND
     1     4     5   ar
     2     5     6   ar
     3     6     7   ar
     4     7     1    1
     5     1    10    1
     6    10    11   ar
     7    11    12   ar
     8    12    13   ar
     9    13    14   ar
    10    14    15   ar
    11     1     2    1
    12     2     3    1
    13     3    16    1
    14    16    17    2
    15    17    18    1
    16    18    19    1
    17    19    20    1
    18     7     8   ar
    19     8     9   ar
    20     9     4   ar
    21     3     1    1
    22    20    16    1
    23    15    10   ar
    24    20    21    1
@<TRIPOS>MOLECULE
*****
 21 24 0 0 0
SMALL
GASTEIGER

@<TRIPOS>ATOM
      1 C         140.1857  139.8282  167.1460 C.3     1  UNL1        0.0492
      2 C         138.7673  139.5297  167.5316 C.3     1  UNL1        0.0214
      3 C         139.2037  139.3805  166.1043 C.3     1  UNL1        0.1132
      4 C         143.8615  140.3161  164.5964 C.ar    1  UNL1       -0.0000
      5 C         143.4136  138.9463  165.0123 C.ar    1  UNL1       -0.0003
      6 C         142.1884  138.7837  165.8621 C.ar    1  UNL1       -0.0040
      7 C         141.4110  139.9908  166.2962 C.ar    1  UNL1       -0.0185
      8 C         141.8589  141.3606  165.8803 C.ar    1  UNL1       -0.0040
      9 C         143.0841  141.5233  165.0304 C.ar    1  UNL1       -0.0003
     10 C         140.7422  140.2194  168.4829 C.ar    1  UNL1       -0.0185
     11 C         141.9637  139.5321  169.0171 C.ar    1  UNL1       -0.0040
     12 C         142.5202  139.9233  170.3541 C.ar    1  UNL1       -0.0003
     13 C         141.8551  141.0019  171.1567 C.ar    1  UNL1       -0.0000
     14 C         140.6336  141.6893  170.6225 C.ar    1  UNL1       -0.0003
     15 C         140.0771  141.2981  169.2856 C.ar    1  UNL1       -0.0040
     16 C         138.8888  139.0358  164.6788 C.2     1  UNL1        0.2920
     17 N         139.1726  137.7261  164.0051 N.2     1  UNL1       -0.0652
     18 C         138.6940  137.8212  162.5866 C.3     1  UNL1        0.3129
     19 C         138.1144  139.1897  162.3838 C.3     1  UNL1        0.2574
     20 N         138.2348  139.9404  163.6768 N.pl3   1  UNL1       -0.2190
     21 H         137.9369  140.8646  163.8393 H       1  UNL1        0.2920
@<TRIPOS>BOND
     1     4     5   ar
     2     5     6   ar
     3     6     7   ar
     4     7     1    1
     5     1    10    1
     6    10    11   ar
     7    11    12   ar
     8    12    13   ar
     9    13    14   ar
    10    14    15   ar
    11     1     2    1
    12     2     3    1
    13     3    16    1
    14    16    17    2
    15    17    18    1
    16    18    19    1
    17    19    20    1
    18     7     8   ar
    19     8     9   ar
    20     9     4   ar
    21     3     1    1
    22    20    16    1
    23    15    10   ar
    24    20    21    1
@<TRIPOS>MOLECULE
*****
 21 24 0 0 0
SMALL
GASTEIGER

@<TRIPOS>ATOM
      1 C         142.0048  142.6207  165.7117 C.3     1  UNL1        0.0492
      2 C         143.2084  142.3409  166.5619 C.3     1  UNL1        0.0214
      3 C         141.8371  142.3057  167.1686 C.3     1  UNL1        0.1132
      4 C         137.6998  143.2022  164.5373 C.ar    1  UNL1       -0.0000
      5 C         138.5706  144.3930  164.8087 C.ar    1  UNL1       -0.0003
      6 C         140.0056  144.1991  165.2001 C.ar    1  UNL1       -0.0040
      7 C         140.5698  142.8145  165.3202 C.ar    1  UNL1       -0.0185
      8 C         139.6990  141.6237  165.0489 C.ar    1  UNL1       -0.0040
      9 C         138.2640  141.8176  164.6574 C.ar    1  UNL1       -0.0003
     10 C         142.6709  142.8684  164.3907 C.ar    1  UNL1       -0.0185
     11 C         143.4158  144.1487  164.1547 C.ar    1  UNL1       -0.0040
     12 C         144.0819  144.3964  162.8337 C.ar    1  UNL1       -0.0003
     13 C         144.0031  143.3636  161.7488 C.ar    1  UNL1       -0.0000
     14 C         143.2582  142.0832  161.9847 C.ar    1  UNL1       -0.0003
     15 C         142.5921  141.8356  163.3057 C.ar    1  UNL1       -0.0040
     16 C         140.9484  142.1036  168.3601 C.2     1  UNL1        0.2920
     17 N         140.6571  143.1190  169.4250 N.2     1  UNL1       -0.0652
     18 C         139.7238  142.4935  170.4188 C.3     1  UNL1        0.3129
     19 C         139.4383  141.0917  169.9681 C.3     1  UNL1        0.2574
     20 N         140.1952  140.8506  168.6957 N.pl3   1  UNL1       -0.2190
     21 H         140.1972  140.0165  168.1727 H       1  UNL1        0.2920
@<TRIPOS>BOND
     1     4     5   ar
     2     5     6   ar
     3     6     7   ar
     4     7     1    1
     5     1    10    1
     6    10    11   ar
     7    11    12   ar
     8    12    13   ar
     9    13    14   ar
    10    14    15   ar
    11     1     2    1
    12     2     3    1
    13     3    16    1
    14    16    17    2
    15    17    18    1
    16    18    19    1
    17    19    20    1
    18     7     8   ar
    19     8     9   ar
    20     9     4   ar
    21     3     1    1
    22    20    16    1
    23    15    10   ar
    24    20    21    1
