@<TRIPOS>MOLECULE
*****
 36 39 0 0 0
SMALL
GASTEIGER

@<TRIPOS>ATOM
      1 C         142.7521  138.0202  161.6007 C.ar    1  UNL1        0.0528
      2 C         141.4975  138.1732  162.4086 C.ar    1  UNL1        0.0161
      3 C         141.5385  138.8802  163.7308 C.ar    1  UNL1        0.0181
      4 C         142.8340  139.4342  164.2453 C.ar    1  UNL1        0.0757
      5 C         144.0886  139.2811  163.4376 C.ar    1  UNL1        0.1545
      6 F         145.3841  139.8351  163.9521 F       1  UNL1       -0.2028
      7 C         144.0477  138.5741  162.1152 C.ar    1  UNL1        0.0456
      8 N         142.8749  140.1412  165.5677 N.pl3   1  UNL1       -0.3057
      9 C         142.5750  139.3887  166.8301 C.3     1  UNL1        0.0922
     10 C         142.6159  140.0957  168.1523 C.3     1  UNL1        0.0374
     11 C         142.9567  141.5552  168.2122 C.3     1  UNL1        0.0610
     12 C         143.2566  142.3078  166.9498 C.3     1  UNL1        0.0374
     13 C         143.2157  141.6007  165.6275 C.3     1  UNL1        0.0922
     14 N         142.9977  142.2623  169.5345 N.3     1  UNL1       -0.2706
     15 C         144.3138  142.6741  170.1244 C.3     1  UNL1        0.0897
     16 C         141.7223  142.5574  170.2670 C.3     1  UNL1        0.1042
     17 C         141.1719  141.5625  171.2453 C.3     1  UNL1        0.1544
     18 O         142.1027  140.6686  172.0099 O.3     1  UNL1       -0.3805
     19 H         142.5470  140.0635  171.3958 H       1  UNL1        0.2105
     20 N         142.7112  137.3132  160.2785 N.pl3   1  UNL1       -0.2825
     21 H         142.7428  136.3297  160.2449 H       1  UNL1        0.1551
     22 C         142.3548  140.4785  155.1938 C.3     1  UNL1        0.0342
     23 C         142.4439  139.6872  156.4650 C.ar    1  UNL1        0.0152
     24 C         141.3146  138.7861  156.8682 C.ar    1  UNL1        0.0990
     25 N         141.4037  137.9948  158.1394 N.ar    1  UNL1       -0.2123
     26 C         142.6221  138.1045  159.0073 C.ar    1  UNL1        0.2207
     27 N         143.7514  139.0055  158.6040 N.ar    1  UNL1       -0.2138
     28 C         143.6624  139.7969  157.3329 C.ar    1  UNL1        0.0847
     29 C         144.7918  140.6979  156.9297 C.ar    1  UNL1        0.0571
     30 C         145.1164  142.0306  157.5369 C.ar    1  UNL1        0.1231
     31 N         146.3201  142.5808  156.8309 N.ar    1  UNL1       -0.1677
     32 N         146.7394  141.5881  155.7873 N.ar    1  UNL1       -0.2513
     33 C         145.7949  140.4245  155.8484 C.ar    1  UNL1        0.0980
     34 C         147.8996  141.7337  154.8478 C.3     1  UNL1        0.1054
     35 C         149.3027  141.6894  155.3762 C.3     1  UNL1        0.0263
     36 C         147.6566  141.9235  153.3798 C.3     1  UNL1        0.0263
@<TRIPOS>BOND
     1    22    23    1
     2    23    24   ar
     3    24    25   ar
     4    25    26   ar
     5    26    20    1
     6    20     1    1
     7     1     2   ar
     8     2     3   ar
     9     3     4   ar
    10     4     8    1
    11     8     9    1
    12     9    10    1
    13    10    11    1
    14    11    14    1
    15    14    15    1
    16    14    16    1
    17    16    17    1
    18    17    18    1
    19    11    12    1
    20    12    13    1
    21     4     5   ar
    22     5     6    1
    23     5     7   ar
    24    26    27   ar
    25    27    28   ar
    26    28    29    1
    27    29    30   ar
    28    30    31   ar
    29    31    32   ar
    30    32    34    1
    31    34    35    1
    32    34    36    1
    33    32    33   ar
    34    28    23   ar
    35    33    29   ar
    36     7     1   ar
    37    13     8    1
    38    20    21    1
    39    18    19    1
@<TRIPOS>MOLECULE
*****
 36 39 0 0 0
SMALL
GASTEIGER

@<TRIPOS>ATOM
      1 C         139.8313  138.9692  160.0860 C.ar    1  UNL1        0.0528
      2 C         140.6441  140.1146  160.6129 C.ar    1  UNL1        0.0161
      3 C         140.7874  140.3145  162.0926 C.ar    1  UNL1        0.0181
      4 C         140.1179  139.3691  163.0454 C.ar    1  UNL1        0.0757
      5 C         139.3051  138.2238  162.5186 C.ar    1  UNL1        0.1545
      6 F         138.6356  137.2783  163.4715 F       1  UNL1       -0.2028
      7 C         139.1618  138.0238  161.0389 C.ar    1  UNL1        0.0456
      8 N         140.2613  139.5690  164.5252 N.pl3   1  UNL1       -0.3057
      9 C         139.0699  139.9612  165.3479 C.3     1  UNL1        0.0922
     10 C         139.2133  140.1611  166.8275 C.3     1  UNL1        0.0374
     11 C         140.5480  139.9689  167.4845 C.3     1  UNL1        0.0610
     12 C         141.7393  139.5767  166.6618 C.3     1  UNL1        0.0374
     13 C         141.5960  139.3768  165.1821 C.3     1  UNL1        0.0922
     14 N         140.6913  140.1688  168.9642 N.3     1  UNL1       -0.2706
     15 C         141.8495  139.5569  169.6950 C.3     1  UNL1        0.0897
     16 C         139.6765  140.9808  169.7131 C.3     1  UNL1        0.1042
     17 C         140.1052  142.1998  170.4748 C.3     1  UNL1        0.1544
     18 O         140.5183  142.0794  171.9117 O.3     1  UNL1       -0.3805
     19 H         139.7539  141.8142  172.4468 H       1  UNL1        0.2105
     20 N         139.6880  138.7693  158.6064 N.pl3   1  UNL1       -0.2825
     21 H         138.7955  138.7877  158.1913 H       1  UNL1        0.1551
     22 C         144.5544  137.8578  155.2170 C.3     1  UNL1        0.0342
     23 C         143.3378  138.0857  156.0643 C.ar    1  UNL1        0.0152
     24 C         142.9455  139.4801  156.4537 C.ar    1  UNL1        0.0990
     25 N         141.7289  139.7080  157.3011 N.ar    1  UNL1       -0.2123
     26 C         140.9046  138.5414  157.7590 C.ar    1  UNL1        0.2207
     27 N         141.2970  137.1470  157.3697 N.ar    1  UNL1       -0.2138
     28 C         142.5135  136.9192  156.5223 C.ar    1  UNL1        0.0847
     29 C         142.9059  135.5246  156.1329 C.ar    1  UNL1        0.0571
     30 C         142.4972  134.8116  154.8781 C.ar    1  UNL1        0.1231
     31 N         143.1145  133.4447  154.8997 N.ar    1  UNL1       -0.1677
     32 N         143.9047  133.3129  156.1680 N.ar    1  UNL1       -0.2513
     33 C         143.7757  134.5984  156.9301 C.ar    1  UNL1        0.0980
     34 C         144.6865  132.1073  156.5984 C.3     1  UNL1        0.1054
     35 C         145.4117  132.1133  157.9115 C.3     1  UNL1        0.0263
     36 C         144.7432  130.8958  155.7158 C.3     1  UNL1        0.0263
@<TRIPOS>BOND
     1    22    23    1
     2    23    24   ar
     3    24    25   ar
     4    25    26   ar
     5    26    20    1
     6    20     1    1
     7     1     2   ar
     8     2     3   ar
     9     3     4   ar
    10     4     8    1
    11     8     9    1
    12     9    10    1
    13    10    11    1
    14    11    14    1
    15    14    15    1
    16    14    16    1
    17    16    17    1
    18    17    18    1
    19    11    12    1
    20    12    13    1
    21     4     5   ar
    22     5     6    1
    23     5     7   ar
    24    26    27   ar
    25    27    28   ar
    26    28    29    1
    27    29    30   ar
    28    30    31   ar
    29    31    32   ar
    30    32    34    1
    31    34    35    1
    32    34    36    1
    33    32    33   ar
    34    28    23   ar
    35    33    29   ar
    36     7     1   ar
    37    13     8    1
    38    20    21    1
    39    18    19    1
@<TRIPOS>MOLECULE
*****
 36 39 0 0 0
SMALL
GASTEIGER

@<TRIPOS>ATOM
      1 C         143.4610  138.9997  161.5310 C.ar    1  UNL1        0.0528
      2 C         143.9169  140.2692  162.1873 C.ar    1  UNL1        0.0161
      3 C         143.5428  140.5533  163.6119 C.ar    1  UNL1        0.0181
      4 C         142.7129  139.5680  164.3801 C.ar    1  UNL1        0.0757
      5 C         142.2570  138.2985  163.7239 C.ar    1  UNL1        0.1545
      6 F         141.4270  137.3132  164.4922 F       1  UNL1       -0.2028
      7 C         142.6311  138.0144  162.2993 C.ar    1  UNL1        0.0456
      8 N         142.3388  139.8521  165.8047 N.pl3   1  UNL1       -0.3057
      9 C         143.0307  139.1271  166.9208 C.3     1  UNL1        0.0922
     10 C         142.6567  139.4113  168.3453 C.3     1  UNL1        0.0374
     11 C         141.5906  140.4204  168.6538 C.3     1  UNL1        0.0610
     12 C         140.8987  141.1454  167.5377 C.3     1  UNL1        0.0374
     13 C         141.2727  140.8613  166.1132 C.3     1  UNL1        0.0922
     14 N         141.2165  140.7046  170.0784 N.3     1  UNL1       -0.2706
     15 C         139.9694  140.1074  170.6597 C.3     1  UNL1        0.0897
     16 C         142.0896  141.5859  170.9215 C.3     1  UNL1        0.1042
     17 C         142.8477  142.7156  170.2899 C.3     1  UNL1        0.1544
     18 O         143.2663  143.8939  171.1185 O.3     1  UNL1       -0.3805
     19 H         142.4788  144.3744  171.4183 H       1  UNL1        0.2105
     20 N         143.8351  138.7156  160.1065 N.pl3   1  UNL1       -0.2825
     21 H         144.7803  138.7373  159.8321 H       1  UNL1        0.1551
     22 C         139.5708  137.4470  156.0807 C.3     1  UNL1        0.0342
     23 C         140.6369  137.7642  157.0872 C.ar    1  UNL1        0.0152
     24 C         140.3952  138.8151  158.1298 C.ar    1  UNL1        0.0990
     25 N         141.4613  139.1322  159.1363 N.ar    1  UNL1       -0.2123
     26 C         142.7690  138.3985  159.1001 C.ar    1  UNL1        0.2207
     27 N         143.0107  137.3476  158.0574 N.ar    1  UNL1       -0.2138
     28 C         141.9447  137.0304  157.0510 C.ar    1  UNL1        0.0847
     29 C         142.1864  135.9795  156.0083 C.ar    1  UNL1        0.0571
     30 C         142.3837  136.2219  154.5412 C.ar    1  UNL1        0.1231
     31 N         142.5925  134.8939  153.8759 N.ar    1  UNL1       -0.1677
     32 N         142.5243  133.8306  154.9318 N.ar    1  UNL1       -0.2513
     33 C         142.2733  134.5016  156.2497 C.ar    1  UNL1        0.0980
     34 C         142.6798  132.3554  154.7090 C.3     1  UNL1        0.1054
     35 C         142.7784  131.8140  153.3136 C.3     1  UNL1        0.0263
     36 C         142.7367  131.4216  155.8815 C.3     1  UNL1        0.0263
@<TRIPOS>BOND
     1    22    23    1
     2    23    24   ar
     3    24    25   ar
     4    25    26   ar
     5    26    20    1
     6    20     1    1
     7     1     2   ar
     8     2     3   ar
     9     3     4   ar
    10     4     8    1
    11     8     9    1
    12     9    10    1
    13    10    11    1
    14    11    14    1
    15    14    15    1
    16    14    16    1
    17    16    17    1
    18    17    18    1
    19    11    12    1
    20    12    13    1
    21     4     5   ar
    22     5     6    1
    23     5     7   ar
    24    26    27   ar
    25    27    28   ar
    26    28    29    1
    27    29    30   ar
    28    30    31   ar
    29    31    32   ar
    30    32    34    1
    31    34    35    1
    32    34    36    1
    33    32    33   ar
    34    28    23   ar
    35    33    29   ar
    36     7     1   ar
    37    13     8    1
    38    20    21    1
    39    18    19    1
@<TRIPOS>MOLECULE
*****
 36 39 0 0 0
SMALL
GASTEIGER

@<TRIPOS>ATOM
      1 C         138.4860  139.5776  160.4347 C.ar    1  UNL1        0.0528
      2 C         139.3800  138.5800  161.1098 C.ar    1  UNL1        0.0161
      3 C         139.5753  138.6330  162.5961 C.ar    1  UNL1        0.0181
      4 C         138.8767  139.6836  163.4073 C.ar    1  UNL1        0.0757
      5 C         137.9827  140.6812  162.7323 C.ar    1  UNL1        0.1545
      6 F         137.2841  141.7318  163.5436 F       1  UNL1       -0.2028
      7 C         137.7874  140.6282  161.2460 C.ar    1  UNL1        0.0456
      8 N         139.0721  139.7366  164.8937 N.pl3   1  UNL1       -0.3057
      9 C         138.0347  139.1549  165.8077 C.3     1  UNL1        0.0922
     10 C         138.2301  139.2080  167.2939 C.3     1  UNL1        0.0374
     11 C         139.4629  139.8427  167.8661 C.3     1  UNL1        0.0610
     12 C         140.5003  140.4243  166.9521 C.3     1  UNL1        0.0374
     13 C         140.3049  140.3713  165.4659 C.3     1  UNL1        0.0922
     14 N         139.6583  139.8957  169.3525 N.3     1  UNL1       -0.2706
     15 C         138.4788  140.0960  170.2573 C.3     1  UNL1        0.0897
     16 C         141.0331  139.7483  169.9339 C.3     1  UNL1        0.1042
     17 C         141.7035  140.9235  170.5815 C.3     1  UNL1        0.1544
     18 O         142.2111  140.8157  171.9889 O.3     1  UNL1       -0.3805
     19 H         141.4622  140.7018  172.5949 H       1  UNL1        0.2105
     20 N         138.2907  139.5245  158.9485 N.pl3   1  UNL1       -0.2825
     21 H         137.3854  139.5959  158.5681 H       1  UNL1        0.1551
     22 C         143.0262  138.8773  155.3214 C.3     1  UNL1        0.0342
     23 C         141.8423  139.0391  156.2282 C.ar    1  UNL1        0.0152
     24 C         141.3755  140.4113  156.6145 C.ar    1  UNL1        0.0990
     25 N         140.1916  140.5731  157.5213 N.ar    1  UNL1       -0.2123
     26 C         139.4745  139.3627  158.0417 C.ar    1  UNL1        0.2207
     27 N         139.9414  137.9906  157.6555 N.ar    1  UNL1       -0.2138
     28 C         141.1253  137.8288  156.7487 C.ar    1  UNL1        0.0847
     29 C         141.5922  136.4566  156.3624 C.ar    1  UNL1        0.0571
     30 C         142.7195  135.6976  156.9972 C.ar    1  UNL1        0.1231
     31 N         142.8377  134.3744  156.3007 N.ar    1  UNL1       -0.1677
     32 N         141.7834  134.3156  155.2353 N.ar    1  UNL1       -0.2513
     33 C         141.0136  135.6025  155.2734 C.ar    1  UNL1        0.0980
     34 C         141.5413  133.1710  154.2966 C.3     1  UNL1        0.1054
     35 C         141.0785  131.8480  154.8308 C.3     1  UNL1        0.0263
     36 C         141.7621  133.3494  152.8236 C.3     1  UNL1        0.0263
@<TRIPOS>BOND
     1    22    23    1
     2    23    24   ar
     3    24    25   ar
     4    25    26   ar
     5    26    20    1
     6    20     1    1
     7     1     2   ar
     8     2     3   ar
     9     3     4   ar
    10     4     8    1
    11     8     9    1
    12     9    10    1
    13    10    11    1
    14    11    14    1
    15    14    15    1
    16    14    16    1
    17    16    17    1
    18    17    18    1
    19    11    12    1
    20    12    13    1
    21     4     5   ar
    22     5     6    1
    23     5     7   ar
    24    26    27   ar
    25    27    28   ar
    26    28    29    1
    27    29    30   ar
    28    30    31   ar
    29    31    32   ar
    30    32    34    1
    31    34    35    1
    32    34    36    1
    33    32    33   ar
    34    28    23   ar
    35    33    29   ar
    36     7     1   ar
    37    13     8    1
    38    20    21    1
    39    18    19    1
@<TRIPOS>MOLECULE
*****
 36 39 0 0 0
SMALL
GASTEIGER

@<TRIPOS>ATOM
      1 C         140.4429  145.2997  161.0719 C.ar    1  UNL1        0.0528
      2 C         141.5867  144.3293  161.0773 C.ar    1  UNL1        0.0161
      3 C         141.9671  143.6252  162.3460 C.ar    1  UNL1        0.0181
      4 C         141.2036  143.8915  163.6094 C.ar    1  UNL1        0.0757
      5 C         140.0598  144.8619  163.6041 C.ar    1  UNL1        0.1545
      6 F         139.2963  145.1282  164.8675 F       1  UNL1       -0.2028
      7 C         139.6794  145.5660  162.3353 C.ar    1  UNL1        0.0456
      8 N         141.5840  143.1875  164.8781 N.pl3   1  UNL1       -0.3057
      9 C         143.0210  143.1344  165.3046 C.3     1  UNL1        0.0922
     10 C         143.4014  142.4304  166.5733 C.3     1  UNL1        0.0374
     11 C         142.3446  141.7794  167.4155 C.3     1  UNL1        0.0610
     12 C         140.9075  141.8324  166.9891 C.3     1  UNL1        0.0374
     13 C         140.5272  142.5364  165.7204 C.3     1  UNL1        0.0922
     14 N         142.7250  141.0753  168.6843 N.3     1  UNL1       -0.2706
     15 C         142.3717  139.6300  168.8749 C.3     1  UNL1        0.0897
     16 C         143.4586  141.8165  169.7624 C.3     1  UNL1        0.1042
     17 C         142.7247  142.7907  170.6355 C.3     1  UNL1        0.1544
     18 O         142.1060  142.3273  171.9209 O.3     1  UNL1       -0.3805
     19 H         141.3852  141.7075  171.7278 H       1  UNL1        0.2105
     20 N         140.0625  146.0037  159.8032 N.pl3   1  UNL1       -0.2825
     21 H         139.7799  146.9464  159.8291 H       1  UNL1        0.1551
     22 C         140.2640  143.0747  154.5706 C.3     1  UNL1        0.0342
     23 C         140.2137  143.8070  155.8787 C.ar    1  UNL1        0.0152
     24 C         141.1373  144.9623  156.1276 C.ar    1  UNL1        0.0990
     25 N         141.0869  145.6946  157.4357 N.ar    1  UNL1       -0.2123
     26 C         140.1129  145.2714  158.4951 C.ar    1  UNL1        0.2207
     27 N         139.1893  144.1160  158.2462 N.ar    1  UNL1       -0.2138
     28 C         139.2397  143.3838  156.9381 C.ar    1  UNL1        0.0847
     29 C         138.3160  142.2284  156.6893 C.ar    1  UNL1        0.0571
     30 C         138.6294  140.7814  156.9300 C.ar    1  UNL1        0.1231
     31 N         137.4238  139.9758  156.5455 N.ar    1  UNL1       -0.1677
     32 N         136.3653  140.9250  156.0673 N.ar    1  UNL1       -0.2513
     33 C         136.9167  142.3171  156.1561 C.ar    1  UNL1        0.0980
     34 C         134.9959  140.5482  155.5849 C.3     1  UNL1        0.1054
     35 C         133.9738  140.0351  156.5554 C.3     1  UNL1        0.0263
     36 C         134.6487  140.6845  154.1320 C.3     1  UNL1        0.0263
@<TRIPOS>BOND
     1    22    23    1
     2    23    24   ar
     3    24    25   ar
     4    25    26   ar
     5    26    20    1
     6    20     1    1
     7     1     2   ar
     8     2     3   ar
     9     3     4   ar
    10     4     8    1
    11     8     9    1
    12     9    10    1
    13    10    11    1
    14    11    14    1
    15    14    15    1
    16    14    16    1
    17    16    17    1
    18    17    18    1
    19    11    12    1
    20    12    13    1
    21     4     5   ar
    22     5     6    1
    23     5     7   ar
    24    26    27   ar
    25    27    28   ar
    26    28    29    1
    27    29    30   ar
    28    30    31   ar
    29    31    32   ar
    30    32    34    1
    31    34    35    1
    32    34    36    1
    33    32    33   ar
    34    28    23   ar
    35    33    29   ar
    36     7     1   ar
    37    13     8    1
    38    20    21    1
    39    18    19    1
@<TRIPOS>MOLECULE
*****
 36 39 0 0 0
SMALL
GASTEIGER

@<TRIPOS>ATOM
      1 C         142.9843  137.8815  161.7663 C.ar    1  UNL1        0.0528
      2 C         144.0646  138.7681  162.3114 C.ar    1  UNL1        0.0161
      3 C         143.9027  139.4054  163.6596 C.ar    1  UNL1        0.0181
      4 C         142.6606  139.1562  164.4627 C.ar    1  UNL1        0.0757
      5 C         141.5803  138.2697  163.9176 C.ar    1  UNL1        0.1545
      6 F         140.3382  138.0204  164.7207 F       1  UNL1       -0.2028
      7 C         141.7422  137.6323  162.5694 C.ar    1  UNL1        0.0456
      8 N         142.4987  139.7935  165.8109 N.pl3   1  UNL1       -0.3057
      9 C         142.0131  141.2086  165.9181 C.3     1  UNL1        0.0922
     10 C         141.8512  141.8459  167.2663 C.3     1  UNL1        0.0374
     11 C         142.1750  141.0681  168.5073 C.3     1  UNL1        0.0610
     12 C         142.6606  139.6529  168.4001 C.3     1  UNL1        0.0374
     13 C         142.8225  139.0157  167.0519 C.3     1  UNL1        0.0922
     14 N         142.0131  141.7054  169.8555 N.3     1  UNL1       -0.2706
     15 C         142.1459  140.8758  171.0981 C.3     1  UNL1        0.0897
     16 C         141.7185  143.1724  169.9611 C.3     1  UNL1        0.1042
     17 C         140.2980  143.6488  170.0329 C.3     1  UNL1        0.1544
     18 O         140.0030  145.0792  170.3747 O.3     1  UNL1       -0.3805
     19 H         140.2803  145.2575  171.2870 H       1  UNL1        0.2105
     20 N         143.1463  137.2442  160.4181 N.pl3   1  UNL1       -0.2825
     21 H         143.5466  136.3480  160.3422 H       1  UNL1        0.1551
     22 C         141.3543  140.1570  155.4881 C.3     1  UNL1        0.0342
     23 C         141.8023  139.4288  156.7206 C.ar    1  UNL1        0.0152
     24 C         142.5755  138.1495  156.5965 C.ar    1  UNL1        0.0990
     25 N         143.0235  137.4213  157.8290 N.ar    1  UNL1       -0.2123
     26 C         142.6983  137.9724  159.1856 C.ar    1  UNL1        0.2207
     27 N         141.9250  139.2517  159.3097 N.ar    1  UNL1       -0.2138
     28 C         141.4770  139.9799  158.0773 C.ar    1  UNL1        0.0847
     29 C         140.7038  141.2593  158.2014 C.ar    1  UNL1        0.0571
     30 C         139.2157  141.4053  158.0820 C.ar    1  UNL1        0.1231
     31 N         138.8751  142.8534  158.2736 N.ar    1  UNL1       -0.1677
     32 N         140.1527  143.6026  158.5115 N.ar    1  UNL1       -0.2513
     33 C         141.2829  142.6173  158.4669 C.ar    1  UNL1        0.0980
     34 C         140.2781  145.0779  158.7518 C.3     1  UNL1        0.1054
     35 C         140.4322  146.0162  157.5918 C.3     1  UNL1        0.0263
     36 C         140.2495  145.6148  160.1521 C.3     1  UNL1        0.0263
@<TRIPOS>BOND
     1    22    23    1
     2    23    24   ar
     3    24    25   ar
     4    25    26   ar
     5    26    20    1
     6    20     1    1
     7     1     2   ar
     8     2     3   ar
     9     3     4   ar
    10     4     8    1
    11     8     9    1
    12     9    10    1
    13    10    11    1
    14    11    14    1
    15    14    15    1
    16    14    16    1
    17    16    17    1
    18    17    18    1
    19    11    12    1
    20    12    13    1
    21     4     5   ar
    22     5     6    1
    23     5     7   ar
    24    26    27   ar
    25    27    28   ar
    26    28    29    1
    27    29    30   ar
    28    30    31   ar
    29    31    32   ar
    30    32    34    1
    31    34    35    1
    32    34    36    1
    33    32    33   ar
    34    28    23   ar
    35    33    29   ar
    36     7     1   ar
    37    13     8    1
    38    20    21    1
    39    18    19    1
@<TRIPOS>MOLECULE
*****
 36 39 0 0 0
SMALL
GASTEIGER

@<TRIPOS>ATOM
      1 C         137.7148  139.8189  161.4992 C.ar    1  UNL1        0.0528
      2 C         138.0929  138.5377  162.1817 C.ar    1  UNL1        0.0161
      3 C         138.8233  138.5728  163.4914 C.ar    1  UNL1        0.0181
      4 C         139.1757  139.8891  164.1186 C.ar    1  UNL1        0.0757
      5 C         138.7976  141.1702  163.4361 C.ar    1  UNL1        0.1545
      6 F         139.1500  142.4864  164.0633 F       1  UNL1       -0.2028
      7 C         138.0671  141.1351  162.1264 C.ar    1  UNL1        0.0456
      8 N         139.9062  139.9241  165.4283 N.pl3   1  UNL1       -0.3057
      9 C         141.4056  139.9602  165.4500 C.3     1  UNL1        0.0922
     10 C         142.1360  139.9953  166.7597 C.3     1  UNL1        0.0374
     11 C         141.3670  139.9943  168.0476 C.3     1  UNL1        0.0610
     12 C         139.8676  139.9581  168.0258 C.3     1  UNL1        0.0374
     13 C         139.1372  139.9231  166.7162 C.3     1  UNL1        0.0922
     14 N         142.0975  140.0293  169.3573 N.3     1  UNL1       -0.2706
     15 C         142.5872  138.7543  169.9773 C.3     1  UNL1        0.0897
     16 C         142.3382  141.3395  170.0469 C.3     1  UNL1        0.1042
     17 C         141.6060  141.6653  171.3148 C.3     1  UNL1        0.1544
     18 O         140.6524  140.6704  171.9071 O.3     1  UNL1       -0.3805
     19 H         139.8974  140.5510  171.3098 H       1  UNL1        0.2105
     20 N         136.9843  139.7838  160.1896 N.pl3   1  UNL1       -0.2825
     21 H         136.0040  139.6949  160.1750 H       1  UNL1        0.1551
     22 C         140.0373  140.1847  155.0400 C.3     1  UNL1        0.0342
     23 C         139.2740  140.0845  156.3274 C.ar    1  UNL1        0.0152
     24 C         138.0394  140.9110  156.5336 C.ar    1  UNL1        0.0990
     25 N         137.2762  140.8107  157.8211 N.ar    1  UNL1       -0.2123
     26 C         137.7476  139.8840  158.9022 C.ar    1  UNL1        0.2207
     27 N         138.9822  139.0575  158.6959 N.ar    1  UNL1       -0.2138
     28 C         139.7454  139.1578  157.4085 C.ar    1  UNL1        0.0847
     29 C         140.9801  138.3312  157.2023 C.ar    1  UNL1        0.0571
     30 C         142.3727  138.7093  157.6116 C.ar    1  UNL1        0.1231
     31 N         143.2922  137.5932  157.2128 N.ar    1  UNL1       -0.1677
     32 N         142.4678  136.5253  156.5570 N.ar    1  UNL1       -0.2513
     33 C         141.0388  136.9815  156.5505 C.ar    1  UNL1        0.0980
     34 C         142.9820  135.2290  156.0047 C.3     1  UNL1        0.1054
     35 C         142.6862  134.8492  154.5841 C.3     1  UNL1        0.0263
     36 C         143.7920  134.3125  156.8730 C.3     1  UNL1        0.0263
@<TRIPOS>BOND
     1    22    23    1
     2    23    24   ar
     3    24    25   ar
     4    25    26   ar
     5    26    20    1
     6    20     1    1
     7     1     2   ar
     8     2     3   ar
     9     3     4   ar
    10     4     8    1
    11     8     9    1
    12     9    10    1
    13    10    11    1
    14    11    14    1
    15    14    15    1
    16    14    16    1
    17    16    17    1
    18    17    18    1
    19    11    12    1
    20    12    13    1
    21     4     5   ar
    22     5     6    1
    23     5     7   ar
    24    26    27   ar
    25    27    28   ar
    26    28    29    1
    27    29    30   ar
    28    30    31   ar
    29    31    32   ar
    30    32    34    1
    31    34    35    1
    32    34    36    1
    33    32    33   ar
    34    28    23   ar
    35    33    29   ar
    36     7     1   ar
    37    13     8    1
    38    20    21    1
    39    18    19    1
@<TRIPOS>MOLECULE
*****
 36 39 0 0 0
SMALL
GASTEIGER

@<TRIPOS>ATOM
      1 C         137.8113  139.8814  160.9718 C.ar    1  UNL1        0.0528
      2 C         138.3553  141.1589  161.5394 C.ar    1  UNL1        0.0161
      3 C         139.0094  141.1612  162.8893 C.ar    1  UNL1        0.0181
      4 C         139.1194  139.8861  163.6716 C.ar    1  UNL1        0.0757
      5 C         138.5755  138.6086  163.1040 C.ar    1  UNL1        0.1545
      6 F         138.6855  137.3335  163.8863 F       1  UNL1       -0.2028
      7 C         137.9214  138.6063  161.7540 C.ar    1  UNL1        0.0456
      8 N         139.7735  139.8884  165.0215 N.pl3   1  UNL1       -0.3057
      9 C         138.9362  140.0070  166.2604 C.3     1  UNL1        0.0922
     10 C         139.5903  140.0093  167.6102 C.3     1  UNL1        0.0374
     11 C         141.0816  139.8932  167.7212 C.3     1  UNL1        0.0610
     12 C         141.9189  139.7746  166.4823 C.3     1  UNL1        0.0374
     13 C         141.2649  139.7723  165.1325 C.3     1  UNL1        0.0922
     14 N         141.7357  139.8955  169.0712 N.3     1  UNL1       -0.2706
     15 C         142.6748  138.7894  169.4515 C.3     1  UNL1        0.0897
     16 C         141.4507  141.0040  170.0407 C.3     1  UNL1        0.1042
     17 C         140.3866  140.8329  171.0839 C.3     1  UNL1        0.1544
     18 O         139.8972  139.4598  171.4379 O.3     1  UNL1       -0.3805
     19 H         139.4402  139.0728  170.6748 H       1  UNL1        0.2105
     20 N         137.1573  139.8791  159.6219 N.pl3   1  UNL1       -0.2825
     21 H         136.2194  139.5943  159.5298 H       1  UNL1        0.1551
     22 C         140.2571  141.6053  154.7834 C.3     1  UNL1        0.0342
     23 C         139.4822  141.1738  155.9930 C.ar    1  UNL1        0.0152
     24 C         139.6896  139.8036  156.5671 C.ar    1  UNL1        0.0990
     25 N         138.9146  139.3720  157.7767 N.ar    1  UNL1       -0.2123
     26 C         137.9323  140.3106  158.4123 C.ar    1  UNL1        0.2207
     27 N         137.7249  141.6808  157.8382 N.ar    1  UNL1       -0.2138
     28 C         138.4998  142.1123  156.6285 C.ar    1  UNL1        0.0847
     29 C         138.2924  143.4826  156.0545 C.ar    1  UNL1        0.0571
     30 C         137.1328  143.9177  155.2083 C.ar    1  UNL1        0.1231
     31 N         137.3318  145.3623  154.8567 N.ar    1  UNL1       -0.1677
     32 N         138.6145  145.8199  155.4855 N.ar    1  UNL1       -0.2513
     33 C         139.2081  144.6582  156.2258 C.ar    1  UNL1        0.0980
     34 C         139.2006  147.1974  155.3907 C.3     1  UNL1        0.1054
     35 C         140.2082  147.5120  154.3250 C.3     1  UNL1        0.0263
     36 C         138.7791  148.2603  156.3616 C.3     1  UNL1        0.0263
@<TRIPOS>BOND
     1    22    23    1
     2    23    24   ar
     3    24    25   ar
     4    25    26   ar
     5    26    20    1
     6    20     1    1
     7     1     2   ar
     8     2     3   ar
     9     3     4   ar
    10     4     8    1
    11     8     9    1
    12     9    10    1
    13    10    11    1
    14    11    14    1
    15    14    15    1
    16    14    16    1
    17    16    17    1
    18    17    18    1
    19    11    12    1
    20    12    13    1
    21     4     5   ar
    22     5     6    1
    23     5     7   ar
    24    26    27   ar
    25    27    28   ar
    26    28    29    1
    27    29    30   ar
    28    30    31   ar
    29    31    32   ar
    30    32    34    1
    31    34    35    1
    32    34    36    1
    33    32    33   ar
    34    28    23   ar
    35    33    29   ar
    36     7     1   ar
    37    13     8    1
    38    20    21    1
    39    18    19    1
@<TRIPOS>MOLECULE
*****
 36 39 0 0 0
SMALL
GASTEIGER

@<TRIPOS>ATOM
      1 C         143.4137  138.7997  161.1741 C.ar    1  UNL1        0.0528
      2 C         142.4016  138.0872  162.0215 C.ar    1  UNL1        0.0161
      3 C         142.0604  138.6135  163.3840 C.ar    1  UNL1        0.0181
      4 C         142.7312  139.8523  163.8992 C.ar    1  UNL1        0.0757
      5 C         143.7433  140.5648  163.0519 C.ar    1  UNL1        0.1545
      6 F         144.4141  141.8036  163.5671 F       1  UNL1       -0.2028
      7 C         144.0846  140.0385  161.6893 C.ar    1  UNL1        0.0456
      8 N         142.3899  140.3786  165.2618 N.pl3   1  UNL1       -0.3057
      9 C         141.5242  141.5956  165.4006 C.3     1  UNL1        0.0922
     10 C         141.1829  142.1218  166.7631 C.3     1  UNL1        0.0374
     11 C         141.7075  141.4310  167.9869 C.3     1  UNL1        0.0610
     12 C         142.5732  140.2140  167.8482 C.3     1  UNL1        0.0374
     13 C         142.9145  139.6878  166.4856 C.3     1  UNL1        0.0922
     14 N         141.3662  141.9573  169.3496 N.3     1  UNL1       -0.2706
     15 C         142.3923  142.7138  170.1400 C.3     1  UNL1        0.0897
     16 C         139.9988  141.7271  169.9216 C.3     1  UNL1        0.1042
     17 C         139.4526  140.3337  170.0217 C.3     1  UNL1        0.1544
     18 O         139.7303  139.5050  171.2407 O.3     1  UNL1       -0.3805
     19 H         140.6794  139.3112  171.2906 H       1  UNL1        0.2105
     20 N         143.7550  138.2734  159.8116 N.pl3   1  UNL1       -0.2825
     21 H         144.6946  138.1068  159.5693 H       1  UNL1        0.1551
     22 C         139.3938  137.1834  155.8377 C.3     1  UNL1        0.0342
     23 C         140.4841  137.4559  156.8311 C.ar    1  UNL1        0.0152
     24 C         140.2809  138.4837  157.9046 C.ar    1  UNL1        0.0990
     25 N         141.3712  138.7562  158.8981 N.ar    1  UNL1       -0.2123
     26 C         142.6647  138.0009  158.8181 C.ar    1  UNL1        0.2207
     27 N         142.8679  136.9732  157.7446 N.ar    1  UNL1       -0.2138
     28 C         141.7776  136.7007  156.7512 C.ar    1  UNL1        0.0847
     29 C         141.9808  135.6728  155.6776 C.ar    1  UNL1        0.0571
     30 C         142.3583  135.9492  154.2525 C.ar    1  UNL1        0.1231
     31 N         142.4530  134.6354  153.5349 N.ar    1  UNL1       -0.1677
     32 N         142.1340  133.5470  154.5166 N.ar    1  UNL1       -0.2513
     33 C         141.8421  134.1882  155.8409 C.ar    1  UNL1        0.0980
     34 C         142.1109  132.0758  154.2252 C.3     1  UNL1        0.1054
     35 C         143.3343  131.3997  153.6811 C.3     1  UNL1        0.0263
     36 C         140.8643  131.2806  154.4779 C.3     1  UNL1        0.0263
@<TRIPOS>BOND
     1    22    23    1
     2    23    24   ar
     3    24    25   ar
     4    25    26   ar
     5    26    20    1
     6    20     1    1
     7     1     2   ar
     8     2     3   ar
     9     3     4   ar
    10     4     8    1
    11     8     9    1
    12     9    10    1
    13    10    11    1
    14    11    14    1
    15    14    15    1
    16    14    16    1
    17    16    17    1
    18    17    18    1
    19    11    12    1
    20    12    13    1
    21     4     5   ar
    22     5     6    1
    23     5     7   ar
    24    26    27   ar
    25    27    28   ar
    26    28    29    1
    27    29    30   ar
    28    30    31   ar
    29    31    32   ar
    30    32    34    1
    31    34    35    1
    32    34    36    1
    33    32    33   ar
    34    28    23   ar
    35    33    29   ar
    36     7     1   ar
    37    13     8    1
    38    20    21    1
    39    18    19    1
