@<TRIPOS>MOLECULE
*****
 24 25 0 0 0
SMALL
GASTEIGER

@<TRIPOS>ATOM
      1 C         139.0026  139.8865  165.2770 C.ar    1  UNL1        0.1328
      2 N         138.0779  138.7705  165.6636 N.ar    1  UNL1       -0.1993
      3 C         137.8347  138.4658  167.1120 C.ar    1  UNL1        0.2149
      4 N         136.9099  137.3497  167.4986 N.pl3   1  UNL1       -0.3274
      5 N         138.5161  139.2770  168.1739 N.ar    1  UNL1       -0.2116
      6 C         139.4409  140.3930  167.7873 C.ar    1  UNL1        0.1142
      7 C         140.1223  141.2042  168.8491 C.ar    1  UNL1        0.1578
      8 F         139.8791  140.8995  170.2975 F       1  UNL1       -0.2026
      9 C         141.0470  142.3202  168.4624 C.ar    1  UNL1        0.0312
     10 C         141.2903  142.6249  167.0140 C.ar    1  UNL1        0.0025
     11 C         140.6088  141.8137  165.9522 C.ar    1  UNL1        0.0044
     12 C         139.6841  140.6977  166.3388 C.ar    1  UNL1        0.0514
     13 H         136.4626  136.8173  166.8017 H       1  UNL1        0.1452
     14 H         136.7502  137.1497  168.4493 H       1  UNL1        0.1452
     15 N         139.2458  140.1912  163.8285 N.pl3   1  UNL1       -0.3195
     16 H         140.1645  140.1990  163.4747 H       1  UNL1        0.1481
     17 C         138.0894  140.4840  162.9193 C.3     1  UNL1        0.0729
     18 C         137.2617  141.7168  163.1318 C.3     1  UNL1        0.0196
     19 C         137.8711  143.8175  164.5339 C.3     1  UNL1        0.0001
     20 C         137.9267  143.0569  163.2422 C.3     1  UNL1        0.0017
     21 C         137.7606  139.5441  161.7974 C.3     1  UNL1        0.0512
     22 C         138.4783  138.2319  161.6837 C.3     1  UNL1        0.1389
     23 O         138.5808  137.3274  162.8758 O.3     1  UNL1       -0.3819
     24 H         139.1250  137.7515  163.5576 H       1  UNL1        0.2104
@<TRIPOS>BOND
     1    19    20    1
     2    20    18    1
     3    17    18    1
     4    17    21    1
     5    21    22    1
     6    22    23    1
     7    17    15    1
     8    15     1    1
     9     1     2   ar
    10     2     3   ar
    11     3     4    1
    12     3     5   ar
    13     5     6   ar
    14     6     7   ar
    15     7     8    1
    16     7     9   ar
    17     9    10   ar
    18    10    11   ar
    19    11    12   ar
    20    12     1   ar
    21    12     6   ar
    22    23    24    1
    23    15    16    1
    24     4    13    1
    25     4    14    1
@<TRIPOS>MOLECULE
*****
 24 25 0 0 0
SMALL
GASTEIGER

@<TRIPOS>ATOM
      1 C         139.9524  140.3770  167.5895 C.ar    1  UNL1        0.1328
      2 N         138.7865  139.8586  168.3780 N.ar    1  UNL1       -0.1993
      3 C         138.7442  140.0465  169.8656 C.ar    1  UNL1        0.2149
      4 N         137.5782  139.5280  170.6542 N.pl3   1  UNL1       -0.3274
      5 N         139.8677  140.7528  170.5646 N.ar    1  UNL1       -0.2116
      6 C         141.0337  141.2712  169.7761 C.ar    1  UNL1        0.1142
      7 C         142.1573  141.9775  170.4751 C.ar    1  UNL1        0.1578
      8 F         142.1150  142.1654  171.9627 F       1  UNL1       -0.2026
      9 C         143.3232  142.4959  169.6865 C.ar    1  UNL1        0.0312
     10 C         143.3655  142.3080  168.1989 C.ar    1  UNL1        0.0025
     11 C         142.2419  141.6017  167.4999 C.ar    1  UNL1        0.0044
     12 C         141.0760  141.0833  168.2885 C.ar    1  UNL1        0.0514
     13 H         136.8407  139.0644  170.1954 H       1  UNL1        0.1452
     14 H         137.5504  139.6513  171.6306 H       1  UNL1        0.1452
     15 N         139.9947  140.1891  166.1019 N.pl3   1  UNL1       -0.3195
     16 H         140.0707  140.9713  165.5089 H       1  UNL1        0.1481
     17 C         139.9212  138.8095  165.5178 C.3     1  UNL1        0.0729
     18 C         141.1815  138.0486  165.2304 C.3     1  UNL1        0.0196
     19 C         143.6147  138.4575  166.0446 C.3     1  UNL1        0.0001
     20 C         142.4868  138.7779  165.1091 C.3     1  UNL1        0.0017
     21 C         138.5873  138.1907  165.2210 C.3     1  UNL1        0.0512
     22 C         138.0148  137.1614  166.1497 C.3     1  UNL1        0.1389
     23 O         137.0983  137.5807  167.2606 O.3     1  UNL1       -0.3819
     24 H         137.5901  138.1200  167.8995 H       1  UNL1        0.2104
@<TRIPOS>BOND
     1    19    20    1
     2    20    18    1
     3    17    18    1
     4    17    21    1
     5    21    22    1
     6    22    23    1
     7    17    15    1
     8    15     1    1
     9     1     2   ar
    10     2     3   ar
    11     3     4    1
    12     3     5   ar
    13     5     6   ar
    14     6     7   ar
    15     7     8    1
    16     7     9   ar
    17     9    10   ar
    18    10    11   ar
    19    11    12   ar
    20    12     1   ar
    21    12     6   ar
    22    23    24    1
    23    15    16    1
    24     4    13    1
    25     4    14    1
@<TRIPOS>MOLECULE
*****
 24 25 0 0 0
SMALL
GASTEIGER

@<TRIPOS>ATOM
      1 C         140.0999  140.0556  167.6814 C.ar    1  UNL1        0.1328
      2 N         138.8841  139.6236  168.4463 N.ar    1  UNL1       -0.1993
      3 C         138.7252  140.0150  169.8856 C.ar    1  UNL1        0.2149
      4 N         137.5092  139.5829  170.6504 N.pl3   1  UNL1       -0.3274
      5 N         139.7821  140.8383  170.5600 N.ar    1  UNL1       -0.2116
      6 C         140.9980  141.2703  169.7951 C.ar    1  UNL1        0.1142
      7 C         142.0550  142.0937  170.4695 C.ar    1  UNL1        0.1578
      8 F         141.8961  142.4851  171.9088 F       1  UNL1       -0.2026
      9 C         143.2708  142.5257  169.7046 C.ar    1  UNL1        0.0312
     10 C         143.4297  142.1343  168.2653 C.ar    1  UNL1        0.0025
     11 C         142.3728  141.3109  167.5909 C.ar    1  UNL1        0.0044
     12 C         141.1569  140.8790  168.3558 C.ar    1  UNL1        0.0514
     13 H         136.8155  139.0425  170.2078 H       1  UNL1        0.1452
     14 H         137.4049  139.8398  171.5951 H       1  UNL1        0.1452
     15 N         140.2588  139.6642  166.2421 N.pl3   1  UNL1       -0.3195
     16 H         140.7281  138.8312  166.0074 H       1  UNL1        0.1481
     17 C         139.7026  140.5419  165.1604 C.3     1  UNL1        0.0729
     18 C         140.5996  141.5044  164.4401 C.3     1  UNL1        0.0196
     19 C         139.8473  143.4455  165.9945 C.3     1  UNL1        0.0001
     20 C         140.5202  142.9720  164.7403 C.3     1  UNL1        0.0017
     21 C         138.2492  140.4572  164.7989 C.3     1  UNL1        0.0512
     22 C         137.8198  140.6311  163.3723 C.3     1  UNL1        0.1389
     23 O         136.5326  141.3335  163.0568 O.3     1  UNL1       -0.3819
     24 H         135.7877  140.8075  163.3875 H       1  UNL1        0.2104
@<TRIPOS>BOND
     1    19    20    1
     2    20    18    1
     3    17    18    1
     4    17    21    1
     5    21    22    1
     6    22    23    1
     7    17    15    1
     8    15     1    1
     9     1     2   ar
    10     2     3   ar
    11     3     4    1
    12     3     5   ar
    13     5     6   ar
    14     6     7   ar
    15     7     8    1
    16     7     9   ar
    17     9    10   ar
    18    10    11   ar
    19    11    12   ar
    20    12     1   ar
    21    12     6   ar
    22    23    24    1
    23    15    16    1
    24     4    13    1
    25     4    14    1
@<TRIPOS>MOLECULE
*****
 24 25 0 0 0
SMALL
GASTEIGER

@<TRIPOS>ATOM
      1 C         139.5516  139.4976  165.3756 C.ar    1  UNL1        0.1328
      2 N         138.5076  138.4606  165.6666 N.ar    1  UNL1       -0.1993
      3 C         137.9374  138.3376  167.0485 C.ar    1  UNL1        0.2149
      4 N         136.8934  137.3006  167.3395 N.pl3   1  UNL1       -0.3274
      5 N         138.4114  139.2514  168.1395 N.ar    1  UNL1       -0.2116
      6 C         139.4554  140.2884  167.8485 C.ar    1  UNL1        0.1142
      7 C         139.9293  141.2023  168.9394 C.ar    1  UNL1        0.1578
      8 F         139.3592  141.0792  170.3214 F       1  UNL1       -0.2026
      9 C         140.9734  142.2392  168.6484 C.ar    1  UNL1        0.0312
     10 C         141.5435  142.3623  167.2665 C.ar    1  UNL1        0.0025
     11 C         141.0696  141.4484  166.1755 C.ar    1  UNL1        0.0044
     12 C         140.0256  140.4115  166.4665 C.ar    1  UNL1        0.0514
     13 H         136.5823  136.7008  166.6235 H       1  UNL1        0.1452
     14 H         136.5192  137.2198  168.2465 H       1  UNL1        0.1452
     15 N         140.1217  139.6206  163.9936 N.pl3   1  UNL1       -0.3195
     16 H         139.9700  140.4402  163.4697 H       1  UNL1        0.1481
     17 C         140.9230  138.4950  163.4099 C.3     1  UNL1        0.0729
     18 C         141.9830  137.8237  164.2320 C.3     1  UNL1        0.0196
     19 C         143.4160  138.5093  166.2879 C.3     1  UNL1        0.0001
     20 C         143.0956  138.6345  164.8278 C.3     1  UNL1        0.0017
     21 C         140.6643  138.0405  162.0039 C.3     1  UNL1        0.0512
     22 C         139.2591  137.9746  161.4836 C.3     1  UNL1        0.1389
     23 O         138.1357  137.5974  162.4032 O.3     1  UNL1       -0.3819
     24 H         138.2466  136.6769  162.6884 H       1  UNL1        0.2104
@<TRIPOS>BOND
     1    19    20    1
     2    20    18    1
     3    17    18    1
     4    17    21    1
     5    21    22    1
     6    22    23    1
     7    17    15    1
     8    15     1    1
     9     1     2   ar
    10     2     3   ar
    11     3     4    1
    12     3     5   ar
    13     5     6   ar
    14     6     7   ar
    15     7     8    1
    16     7     9   ar
    17     9    10   ar
    18    10    11   ar
    19    11    12   ar
    20    12     1   ar
    21    12     6   ar
    22    23    24    1
    23    15    16    1
    24     4    13    1
    25     4    14    1
@<TRIPOS>MOLECULE
*****
 24 25 0 0 0
SMALL
GASTEIGER

@<TRIPOS>ATOM
      1 C         141.7449  142.8684  164.9679 C.ar    1  UNL1        0.1328
      2 N         142.9782  143.5509  164.4551 N.ar    1  UNL1       -0.1993
      3 C         142.8596  144.6614  163.4538 C.ar    1  UNL1        0.2149
      4 N         144.0930  145.3439  162.9411 N.pl3   1  UNL1       -0.3274
      5 N         141.5075  145.0895  162.9653 N.ar    1  UNL1       -0.2116
      6 C         140.2741  144.4070  163.4781 C.ar    1  UNL1        0.1142
      7 C         138.9220  144.8351  162.9896 C.ar    1  UNL1        0.1578
      8 F         138.8033  145.9456  161.9883 F       1  UNL1       -0.2026
      9 C         137.6887  144.1526  163.5024 C.ar    1  UNL1        0.0312
     10 C         137.8073  143.0420  164.5037 C.ar    1  UNL1        0.0025
     11 C         139.1594  142.6140  164.9922 C.ar    1  UNL1        0.0044
     12 C         140.3927  143.2964  164.4794 C.ar    1  UNL1        0.0514
     13 H         144.9804  145.0629  163.2617 H       1  UNL1        0.1452
     14 H         144.0151  146.0728  162.2839 H       1  UNL1        0.1452
     15 N         141.8635  141.7578  165.9692 N.pl3   1  UNL1       -0.3195
     16 H         141.8685  140.8209  165.6669 H       1  UNL1        0.1481
     17 C         141.9747  142.0747  167.4311 C.3     1  UNL1        0.0729
     18 C         140.7465  142.0832  168.2922 C.3     1  UNL1        0.0196
     19 C         139.1702  140.6519  169.7810 C.3     1  UNL1        0.0001
     20 C         139.9933  140.8093  168.5370 C.3     1  UNL1        0.0017
     21 C         143.3141  142.3832  168.0319 C.3     1  UNL1        0.0512
     22 C         143.5336  142.2074  169.5053 C.3     1  UNL1        0.1389
     23 O         144.7249  142.8350  170.1662 O.3     1  UNL1       -0.3819
     24 H         145.5358  142.4217  169.8308 H       1  UNL1        0.2104
@<TRIPOS>BOND
     1    19    20    1
     2    20    18    1
     3    17    18    1
     4    17    21    1
     5    21    22    1
     6    22    23    1
     7    17    15    1
     8    15     1    1
     9     1     2   ar
    10     2     3   ar
    11     3     4    1
    12     3     5   ar
    13     5     6   ar
    14     6     7   ar
    15     7     8    1
    16     7     9   ar
    17     9    10   ar
    18    10    11   ar
    19    11    12   ar
    20    12     1   ar
    21    12     6   ar
    22    23    24    1
    23    15    16    1
    24     4    13    1
    25     4    14    1
@<TRIPOS>MOLECULE
*****
 24 25 0 0 0
SMALL
GASTEIGER

@<TRIPOS>ATOM
      1 C         139.7951  142.7672  164.4689 C.ar    1  UNL1        0.1328
      2 N         139.0099  143.6437  163.5388 N.ar    1  UNL1       -0.1993
      3 C         139.6856  144.7795  162.8291 C.ar    1  UNL1        0.2149
      4 N         138.9003  145.6560  161.8990 N.pl3   1  UNL1       -0.3274
      5 N         141.1464  145.0386  163.0495 N.ar    1  UNL1       -0.2116
      6 C         141.9317  144.1620  163.9796 C.ar    1  UNL1        0.1142
      7 C         143.3926  144.4212  164.2000 C.ar    1  UNL1        0.1578
      8 F         144.0683  145.5569  163.4904 F       1  UNL1       -0.2026
      9 C         144.1778  143.5446  165.1301 C.ar    1  UNL1        0.0312
     10 C         143.5021  142.4089  165.8397 C.ar    1  UNL1        0.0025
     11 C         142.0413  142.1498  165.6194 C.ar    1  UNL1        0.0044
     12 C         141.2560  143.0263  164.6893 C.ar    1  UNL1        0.0514
     13 H         137.9414  145.4859  161.7544 H       1  UNL1        0.1452
     14 H         139.3437  146.4014  161.4332 H       1  UNL1        0.1452
     15 N         139.1194  141.6315  165.1785 N.pl3   1  UNL1       -0.3195
     16 H         138.6643  141.7887  166.0372 H       1  UNL1        0.1481
     17 C         139.1372  140.2563  164.5799 C.3     1  UNL1        0.0729
     18 C         139.3172  139.0565  165.4620 C.3     1  UNL1        0.0196
     19 C         140.9666  137.2846  164.5187 C.3     1  UNL1        0.0001
     20 C         139.5672  137.7086  164.8531 C.3     1  UNL1        0.0017
     21 C         138.9749  140.0807  163.0990 C.3     1  UNL1        0.0512
     22 C         137.6885  140.4715  162.4339 C.3     1  UNL1        0.1389
     23 O         136.7008  141.3355  163.1606 O.3     1  UNL1       -0.3819
     24 H         136.3485  140.8520  163.9241 H       1  UNL1        0.2104
@<TRIPOS>BOND
     1    19    20    1
     2    20    18    1
     3    17    18    1
     4    17    21    1
     5    21    22    1
     6    22    23    1
     7    17    15    1
     8    15     1    1
     9     1     2   ar
    10     2     3   ar
    11     3     4    1
    12     3     5   ar
    13     5     6   ar
    14     6     7   ar
    15     7     8    1
    16     7     9   ar
    17     9    10   ar
    18    10    11   ar
    19    11    12   ar
    20    12     1   ar
    21    12     6   ar
    22    23    24    1
    23    15    16    1
    24     4    13    1
    25     4    14    1
@<TRIPOS>MOLECULE
*****
 24 25 0 0 0
SMALL
GASTEIGER

@<TRIPOS>ATOM
      1 C         142.5589  141.9010  167.3347 C.ar    1  UNL1        0.1328
      2 N         143.7195  142.5119  168.0626 N.ar    1  UNL1       -0.1993
      3 C         143.7684  142.4750  169.5613 C.ar    1  UNL1        0.2149
      4 N         144.9291  143.0859  170.2892 N.pl3   1  UNL1       -0.3274
      5 N         142.6566  141.8272  170.3322 N.ar    1  UNL1       -0.2116
      6 C         141.4959  141.2163  169.6044 C.ar    1  UNL1        0.1142
      7 C         140.3842  140.5685  170.3753 C.ar    1  UNL1        0.1578
      8 F         140.4331  140.5316  171.8741 F       1  UNL1       -0.2026
      9 C         139.2236  139.9576  169.6475 C.ar    1  UNL1        0.0312
     10 C         139.1748  139.9945  168.1487 C.ar    1  UNL1        0.0025
     11 C         140.2865  140.6423  167.3778 C.ar    1  UNL1        0.0044
     12 C         141.4471  141.2532  168.1057 C.ar    1  UNL1        0.0514
     13 H         145.6587  143.5111  169.7832 H       1  UNL1        0.1452
     14 H         144.9611  143.0617  171.2728 H       1  UNL1        0.1452
     15 N         142.5101  141.9380  165.8360 N.pl3   1  UNL1       -0.3195
     16 H         141.6779  142.1946  165.3768 H       1  UNL1        0.1481
     17 C         143.7291  141.5838  165.0369 C.3     1  UNL1        0.0729
     18 C         144.0746  140.1445  164.7940 C.3     1  UNL1        0.0196
     19 C         143.4831  138.3174  166.5438 C.3     1  UNL1        0.0001
     20 C         143.1593  139.0608  165.2819 C.3     1  UNL1        0.0017
     21 C         144.6026  142.6691  164.4807 C.3     1  UNL1        0.0512
     22 C         144.5633  144.0440  165.0789 C.3     1  UNL1        0.1389
     23 O         145.3952  144.3606  166.2862 O.3     1  UNL1       -0.3819
     24 H         145.0759  143.8450  167.0432 H       1  UNL1        0.2104
@<TRIPOS>BOND
     1    19    20    1
     2    20    18    1
     3    17    18    1
     4    17    21    1
     5    21    22    1
     6    22    23    1
     7    17    15    1
     8    15     1    1
     9     1     2   ar
    10     2     3   ar
    11     3     4    1
    12     3     5   ar
    13     5     6   ar
    14     6     7   ar
    15     7     8    1
    16     7     9   ar
    17     9    10   ar
    18    10    11   ar
    19    11    12   ar
    20    12     1   ar
    21    12     6   ar
    22    23    24    1
    23    15    16    1
    24     4    13    1
    25     4    14    1
@<TRIPOS>MOLECULE
*****
 24 25 0 0 0
SMALL
GASTEIGER

@<TRIPOS>ATOM
      1 C         140.6127  140.7726  166.4147 C.ar    1  UNL1        0.1328
      2 N         140.3464  139.3138  166.1890 N.ar    1  UNL1       -0.1993
      3 C         139.2249  138.8865  165.2892 C.ar    1  UNL1        0.2149
      4 N         138.9586  137.4276  165.0635 N.pl3   1  UNL1       -0.3274
      5 N         138.3697  139.9181  164.6150 N.ar    1  UNL1       -0.2116
      6 C         138.6360  141.3769  164.8407 C.ar    1  UNL1        0.1142
      7 C         137.7808  142.4085  164.1665 C.ar    1  UNL1        0.1578
      8 F         136.6593  141.9812  163.2667 F       1  UNL1       -0.2026
      9 C         138.0471  143.8673  164.3922 C.ar    1  UNL1        0.0312
     10 C         139.1686  144.2945  165.2920 C.ar    1  UNL1        0.0025
     11 C         140.0238  143.2630  165.9662 C.ar    1  UNL1        0.0044
     12 C         139.7575  141.8042  165.7405 C.ar    1  UNL1        0.0514
     13 H         139.5199  136.7506  165.5060 H       1  UNL1        0.1452
     14 H         138.2225  137.1472  164.4729 H       1  UNL1        0.1452
     15 N         141.7342  141.1998  167.3145 N.pl3   1  UNL1       -0.3195
     16 H         142.6183  141.4076  166.9345 H       1  UNL1        0.1481
     17 C         141.5087  141.3104  168.7933 C.3     1  UNL1        0.0729
     18 C         141.5667  142.6516  169.4625 C.3     1  UNL1        0.0196
     19 C         144.1170  142.5445  169.9473 C.3     1  UNL1        0.0001
     20 C         142.7416  143.0098  170.3237 C.3     1  UNL1        0.0017
     21 C         141.2251  140.0799  169.6029 C.3     1  UNL1        0.0512
     22 C         140.2156  140.1275  170.7112 C.3     1  UNL1        0.1389
     23 O         140.6461  140.4850  172.1029 O.3     1  UNL1       -0.3819
     24 H         141.2329  139.7937  172.4474 H       1  UNL1        0.2104
@<TRIPOS>BOND
     1    19    20    1
     2    20    18    1
     3    17    18    1
     4    17    21    1
     5    21    22    1
     6    22    23    1
     7    17    15    1
     8    15     1    1
     9     1     2   ar
    10     2     3   ar
    11     3     4    1
    12     3     5   ar
    13     5     6   ar
    14     6     7   ar
    15     7     8    1
    16     7     9   ar
    17     9    10   ar
    18    10    11   ar
    19    11    12   ar
    20    12     1   ar
    21    12     6   ar
    22    23    24    1
    23    15    16    1
    24     4    13    1
    25     4    14    1
@<TRIPOS>MOLECULE
*****
 24 25 0 0 0
SMALL
GASTEIGER

@<TRIPOS>ATOM
      1 C         140.0051  141.6529  166.9124 C.ar    1  UNL1        0.1328
      2 N         139.7374  140.1785  166.9795 N.ar    1  UNL1       -0.1993
      3 C         138.8546  139.5291  165.9553 C.ar    1  UNL1        0.2149
      4 N         138.5869  138.0547  166.0225 N.pl3   1  UNL1       -0.3274
      5 N         138.2396  140.3541  164.8640 N.ar    1  UNL1       -0.2116
      6 C         138.5073  141.8285  164.7968 C.ar    1  UNL1        0.1142
      7 C         137.8922  142.6535  163.7055 C.ar    1  UNL1        0.1578
      8 F         137.0095  142.0041  162.6812 F       1  UNL1       -0.2026
      9 C         138.1600  144.1279  163.6383 C.ar    1  UNL1        0.0312
     10 C         139.0427  144.7772  164.6626 C.ar    1  UNL1        0.0025
     11 C         139.6578  143.9523  165.7539 C.ar    1  UNL1        0.0044
     12 C         139.3901  142.4779  165.8210 C.ar    1  UNL1        0.0514
     13 H         138.9906  137.5132  166.7388 H       1  UNL1        0.1452
     14 H         138.0076  137.6284  165.3502 H       1  UNL1        0.1452
     15 N         140.8879  142.3022  167.9366 N.pl3   1  UNL1       -0.3195
     16 H         140.4901  142.8362  168.6618 H       1  UNL1        0.1481
     17 C         142.3767  142.1380  167.8560 C.3     1  UNL1        0.0729
     18 C         143.0205  141.7635  166.5540 C.3     1  UNL1        0.0196
     19 C         144.5434  143.5344  165.4162 C.3     1  UNL1        0.0001
     20 C         143.2350  142.8053  165.4963 C.3     1  UNL1        0.0017
     21 C         143.2217  142.3484  169.0774 C.3     1  UNL1        0.0512
     22 C         142.6225  142.9639  170.3070 C.3     1  UNL1        0.1389
     23 O         143.4251  143.9267  171.1310 O.3     1  UNL1       -0.3819
     24 H         144.1760  143.4615  171.5317 H       1  UNL1        0.2104
@<TRIPOS>BOND
     1    19    20    1
     2    20    18    1
     3    17    18    1
     4    17    21    1
     5    21    22    1
     6    22    23    1
     7    17    15    1
     8    15     1    1
     9     1     2   ar
    10     2     3   ar
    11     3     4    1
    12     3     5   ar
    13     5     6   ar
    14     6     7   ar
    15     7     8    1
    16     7     9   ar
    17     9    10   ar
    18    10    11   ar
    19    11    12   ar
    20    12     1   ar
    21    12     6   ar
    22    23    24    1
    23    15    16    1
    24     4    13    1
    25     4    14    1
