@<TRIPOS>MOLECULE
*****
 42 46 0 0 0
SMALL
GASTEIGER

@<TRIPOS>ATOM
      1 C         143.3692  138.3936  161.9478 C.ar    1  UNL1        0.2400
      2 N         142.6322  137.6273  163.0060 N.ar    1  UNL1       -0.2090
      3 C         142.0943  138.3406  164.2109 C.ar    1  UNL1        0.1021
      4 C         142.2933  139.8200  164.3577 C.ar    1  UNL1        0.0208
      5 C         143.0303  140.5863  163.2996 C.ar    1  UNL1        0.0221
      6 C         143.5683  139.8731  162.0946 C.ar    1  UNL1        0.1178
      7 C         141.7553  140.5333  165.5627 C.ar    1  UNL1        0.0047
      8 C         140.9738  141.8027  165.3960 C.ar    1  UNL1        0.0385
      9 C         140.4359  142.5159  166.6010 C.ar    1  UNL1        0.1560
     10 C         140.6795  141.9597  167.9726 C.ar    1  UNL1        0.1191
     11 N         140.1415  142.6730  169.1776 N.ar    1  UNL1       -0.2109
     12 C         140.3852  142.1168  170.5492 C.ar    1  UNL1        0.2134
     13 N         139.8472  142.8300  171.7541 N.pl3   1  UNL1       -0.3275
     14 N         141.1668  140.8474  170.7158 N.ar    1  UNL1       -0.2184
     15 C         141.7047  140.1342  169.5109 C.ar    1  UNL1        0.0637
     16 C         142.4862  138.8648  169.6775 C.3     1  UNL1        0.0522
     17 C         141.4611  140.6903  168.1393 C.ar    1  UNL1        0.0344
     18 C         141.9990  139.9771  166.9343 C.ar    1  UNL1        0.0029
     19 H         139.3343  143.6631  171.6448 H       1  UNL1        0.1452
     20 H         140.0071  142.4650  172.6544 H       1  UNL1        0.1452
     21 O         139.6542  143.7853  166.4344 O.3     1  UNL1       -0.4775
     22 C         139.2128  144.2204  165.0684 C.3     1  UNL1        0.1710
     23 C         137.9070  143.7349  164.5122 C.3     1  UNL1        0.0756
     24 C         137.4655  144.1700  163.1462 C.3     1  UNL1        0.1459
     25 O         138.3298  145.0906  162.3365 O.3     1  UNL1       -0.3535
     26 C         139.6355  145.5761  162.8928 C.3     1  UNL1        0.1459
     27 C         140.0770  145.1410  164.2587 C.3     1  UNL1        0.0756
     28 C         142.9890  137.3193  159.6131 C.3     1  UNL1        0.2543
     29 O         143.9072  137.6804  160.7429 O.3     1  UNL1       -0.4553
     30 N         144.3053  140.6393  161.0365 N.pl3   1  UNL1       -0.2104
     31 H         145.2277  140.3894  160.8002 H       1  UNL1        0.1739
     32 S         143.6368  141.7864  160.3384 S.O2    1  UNL1        0.0759
     33 O         144.5645  142.7447  161.0248 O.2     1  UNL1       -0.1499
     34 O         142.7092  140.8281  159.6520 O.2     1  UNL1       -0.1499
     35 C         142.9684  142.9336  159.6403 C.ar    1  UNL1        0.1526
     36 C         143.3137  143.2479  158.2148 C.ar    1  UNL1        0.0248
     37 C         142.6453  144.3950  157.5167 C.ar    1  UNL1        0.0312
     38 C         141.6317  145.2277  158.2440 C.ar    1  UNL1        0.1425
     39 F         140.9632  146.3749  157.5459 F       1  UNL1       -0.2041
     40 C         141.2864  144.9134  159.6695 C.ar    1  UNL1        0.0606
     41 C         141.9548  143.7663  160.3676 C.ar    1  UNL1        0.1611
     42 F         141.6096  143.4519  161.7931 F       1  UNL1       -0.2027
@<TRIPOS>BOND
     1    28    29    1
     2    29     1    1
     3     1     2   ar
     4     2     3   ar
     5     3     4   ar
     6     4     7    1
     7     7     8   ar
     8     8     9   ar
     9     9    21    1
    10    21    22    1
    11    22    23    1
    12    23    24    1
    13    24    25    1
    14    25    26    1
    15    26    27    1
    16     9    10   ar
    17    10    11   ar
    18    11    12   ar
    19    12    13    1
    20    12    14   ar
    21    14    15   ar
    22    15    16    1
    23    15    17   ar
    24    17    18   ar
    25     4     5   ar
    26     5     6   ar
    27     6    30    1
    28    30    32    1
    29    32    33    2
    30    32    34    2
    31    32    35    1
    32    35    36   ar
    33    36    37   ar
    34    37    38   ar
    35    38    39    1
    36    38    40   ar
    37    40    41   ar
    38    41    42    1
    39     6     1   ar
    40    41    35   ar
    41    18     7   ar
    42    27    22    1
    43    17    10   ar
    44    13    19    1
    45    13    20    1
    46    30    31    1
@<TRIPOS>MOLECULE
*****
 42 46 0 0 0
SMALL
GASTEIGER

@<TRIPOS>ATOM
      1 C         143.0899  138.7941  159.3482 C.ar    1  UNL1        0.2400
      2 N         142.6301  137.7654  160.3383 N.ar    1  UNL1       -0.2090
      3 C         142.3613  138.1605  161.7602 C.ar    1  UNL1        0.1021
      4 C         142.5523  139.5842  162.1920 C.ar    1  UNL1        0.0208
      5 C         143.0120  140.6130  161.2019 C.ar    1  UNL1        0.0221
      6 C         143.2809  140.2180  159.7800 C.ar    1  UNL1        0.1178
      7 C         142.2834  139.9793  163.6139 C.ar    1  UNL1        0.0047
      8 C         141.4237  141.1719  163.9112 C.ar    1  UNL1        0.0385
      9 C         141.1549  141.5669  165.3330 C.ar    1  UNL1        0.1560
     10 C         141.7458  140.7693  166.4576 C.ar    1  UNL1        0.1191
     11 N         141.4770  141.1643  167.8795 N.ar    1  UNL1       -0.2109
     12 C         142.0679  140.3667  169.0040 C.ar    1  UNL1        0.2134
     13 N         141.7991  140.7617  170.4258 N.pl3   1  UNL1       -0.3275
     14 N         142.9277  139.1740  168.7066 N.ar    1  UNL1       -0.2184
     15 C         143.1965  138.7790  167.2848 C.ar    1  UNL1        0.0637
     16 C         144.0562  137.5863  166.9875 C.3     1  UNL1        0.0522
     17 C         142.6055  139.5766  166.1602 C.ar    1  UNL1        0.0344
     18 C         142.8743  139.1816  164.7384 C.ar    1  UNL1        0.0029
     19 H         141.2349  141.5445  170.6210 H       1  UNL1        0.1452
     20 H         142.1870  140.2382  171.1639 H       1  UNL1        0.1452
     21 O         140.2952  142.7596  165.6304 O.3     1  UNL1       -0.4775
     22 C         139.7072  143.5594  164.5058 C.3     1  UNL1        0.1710
     23 C         140.4817  144.6974  163.9098 C.3     1  UNL1        0.0756
     24 C         139.8938  145.4972  162.7852 C.3     1  UNL1        0.1459
     25 O         138.5313  145.1590  162.2567 O.3     1  UNL1       -0.3535
     26 C         137.7568  144.0210  162.8527 C.3     1  UNL1        0.1459
     27 C         138.3448  143.2213  163.9773 C.3     1  UNL1        0.0756
     28 C         142.6286  137.2377  157.3199 C.3     1  UNL1        0.2543
     29 O         143.3587  138.3991  157.9264 O.3     1  UNL1       -0.4553
     30 N         143.7406  141.2467  158.7899 N.pl3   1  UNL1       -0.2104
     31 H         144.6019  141.1336  158.3267 H       1  UNL1        0.1739
     32 S         142.8881  142.4477  158.5057 S.O2    1  UNL1        0.0759
     33 O         141.9368  141.5881  157.7271 O.2     1  UNL1       -0.1499
     34 O         143.8394  143.3072  159.2842 O.2     1  UNL1       -0.1499
     35 C         142.0355  143.6487  158.2213 C.ar    1  UNL1        0.1526
     36 C         142.1925  144.3904  156.9270 C.ar    1  UNL1        0.0248
     37 C         141.3400  145.5914  156.6427 C.ar    1  UNL1        0.0312
     38 C         140.3305  146.0506  157.6526 C.ar    1  UNL1        0.1425
     39 F         139.4779  147.2516  157.3683 F       1  UNL1       -0.2041
     40 C         140.1735  145.3088  158.9469 C.ar    1  UNL1        0.0606
     41 C         141.0261  144.1079  159.2313 C.ar    1  UNL1        0.1611
     42 F         140.8691  143.3661  160.5256 F       1  UNL1       -0.2027
@<TRIPOS>BOND
     1    28    29    1
     2    29     1    1
     3     1     2   ar
     4     2     3   ar
     5     3     4   ar
     6     4     7    1
     7     7     8   ar
     8     8     9   ar
     9     9    21    1
    10    21    22    1
    11    22    23    1
    12    23    24    1
    13    24    25    1
    14    25    26    1
    15    26    27    1
    16     9    10   ar
    17    10    11   ar
    18    11    12   ar
    19    12    13    1
    20    12    14   ar
    21    14    15   ar
    22    15    16    1
    23    15    17   ar
    24    17    18   ar
    25     4     5   ar
    26     5     6   ar
    27     6    30    1
    28    30    32    1
    29    32    33    2
    30    32    34    2
    31    32    35    1
    32    35    36   ar
    33    36    37   ar
    34    37    38   ar
    35    38    39    1
    36    38    40   ar
    37    40    41   ar
    38    41    42    1
    39     6     1   ar
    40    41    35   ar
    41    18     7   ar
    42    27    22    1
    43    17    10   ar
    44    13    19    1
    45    13    20    1
    46    30    31    1
@<TRIPOS>MOLECULE
*****
 42 46 0 0 0
SMALL
GASTEIGER

@<TRIPOS>ATOM
      1 C         138.1998  138.7611  162.8141 C.ar    1  UNL1        0.2400
      2 N         138.8122  137.9724  163.9334 N.ar    1  UNL1       -0.2090
      3 C         139.6190  138.6696  164.9884 C.ar    1  UNL1        0.1021
      4 C         139.8134  140.1556  164.9240 C.ar    1  UNL1        0.0208
      5 C         139.2011  140.9443  163.8046 C.ar    1  UNL1        0.0221
      6 C         138.3943  140.2471  162.7497 C.ar    1  UNL1        0.1178
      7 C         140.6203  140.8529  165.9790 C.ar    1  UNL1        0.0047
      8 C         141.8993  141.5443  165.6102 C.ar    1  UNL1        0.0385
      9 C         142.7060  142.2415  166.6652 C.ar    1  UNL1        0.1560
     10 C         142.2338  142.2473  168.0889 C.ar    1  UNL1        0.1191
     11 N         143.0406  142.9446  169.1438 N.ar    1  UNL1       -0.2109
     12 C         142.5683  142.9504  170.5675 C.ar    1  UNL1        0.2134
     13 N         143.3751  143.6477  171.6225 N.pl3   1  UNL1       -0.3275
     14 N         141.2892  142.2590  170.9363 N.ar    1  UNL1       -0.2184
     15 C         140.4825  141.5617  169.8813 C.ar    1  UNL1        0.0637
     16 C         139.2035  140.8703  170.2501 C.3     1  UNL1        0.0522
     17 C         140.9548  141.5559  168.4576 C.ar    1  UNL1        0.0344
     18 C         140.1480  140.8587  167.4027 C.ar    1  UNL1        0.0029
     19 H         144.2145  144.1015  171.3805 H       1  UNL1        0.1452
     20 H         143.0651  143.6515  172.5569 H       1  UNL1        0.1452
     21 O         143.9851  142.9330  166.2964 O.3     1  UNL1       -0.4775
     22 C         144.2806  143.2473  164.8598 C.3     1  UNL1        0.1710
     23 C         145.0301  142.2601  164.0149 C.3     1  UNL1        0.0756
     24 C         145.3256  142.5744  162.5783 C.3     1  UNL1        0.1459
     25 O         144.8716  143.8758  161.9865 O.3     1  UNL1       -0.3535
     26 C         144.1221  144.8630  162.8314 C.3     1  UNL1        0.1459
     27 C         143.8266  144.5487  164.2680 C.3     1  UNL1        0.0756
     28 C         138.0359  137.6674  160.4632 C.3     1  UNL1        0.2543
     29 O         137.3930  138.0639  161.7591 O.3     1  UNL1       -0.4553
     30 N         137.7819  141.0358  161.6303 N.pl3   1  UNL1       -0.2104
     31 H         136.8484  140.8704  161.3649 H       1  UNL1        0.1739
     32 S         138.5918  142.0764  160.9154 S.O2    1  UNL1        0.0759
     33 O         139.4664  141.0014  160.3415 O.2     1  UNL1       -0.1499
     34 O         137.7173  143.1514  161.4894 O.2     1  UNL1       -0.1499
     35 C         139.4018  143.1170  160.2005 C.ar    1  UNL1        0.1526
     36 C         139.2416  143.3064  158.7211 C.ar    1  UNL1        0.0248
     37 C         140.0515  144.3470  158.0062 C.ar    1  UNL1        0.0312
     38 C         141.0216  145.1981  158.7705 C.ar    1  UNL1        0.1425
     39 F         141.8316  146.2388  158.0556 F       1  UNL1       -0.2041
     40 C         141.1819  145.0087  160.2499 C.ar    1  UNL1        0.0606
     41 C         140.3719  143.9682  160.9648 C.ar    1  UNL1        0.1611
     42 F         140.5322  143.7788  162.4442 F       1  UNL1       -0.2027
@<TRIPOS>BOND
     1    28    29    1
     2    29     1    1
     3     1     2   ar
     4     2     3   ar
     5     3     4   ar
     6     4     7    1
     7     7     8   ar
     8     8     9   ar
     9     9    21    1
    10    21    22    1
    11    22    23    1
    12    23    24    1
    13    24    25    1
    14    25    26    1
    15    26    27    1
    16     9    10   ar
    17    10    11   ar
    18    11    12   ar
    19    12    13    1
    20    12    14   ar
    21    14    15   ar
    22    15    16    1
    23    15    17   ar
    24    17    18   ar
    25     4     5   ar
    26     5     6   ar
    27     6    30    1
    28    30    32    1
    29    32    33    2
    30    32    34    2
    31    32    35    1
    32    35    36   ar
    33    36    37   ar
    34    37    38   ar
    35    38    39    1
    36    38    40   ar
    37    40    41   ar
    38    41    42    1
    39     6     1   ar
    40    41    35   ar
    41    18     7   ar
    42    27    22    1
    43    17    10   ar
    44    13    19    1
    45    13    20    1
    46    30    31    1
@<TRIPOS>MOLECULE
*****
 42 46 0 0 0
SMALL
GASTEIGER

@<TRIPOS>ATOM
      1 C         139.7764  145.3810  162.0365 C.ar    1  UNL1        0.2400
      2 N         140.7430  145.8750  163.0716 N.ar    1  UNL1       -0.2090
      3 C         141.2524  144.9404  164.1287 C.ar    1  UNL1        0.1021
      4 C         140.7952  143.5120  164.1505 C.ar    1  UNL1        0.0208
      5 C         139.8286  143.0180  163.1153 C.ar    1  UNL1        0.0221
      6 C         139.3191  143.9525  162.0583 C.ar    1  UNL1        0.1178
      7 C         141.3046  142.5775  165.2075 C.ar    1  UNL1        0.0047
      8 C         142.0005  141.3083  164.8143 C.ar    1  UNL1        0.0385
      9 C         142.5099  140.3738  165.8713 C.ar    1  UNL1        0.1560
     10 C         142.3233  140.7086  167.3215 C.ar    1  UNL1        0.1191
     11 N         142.8328  139.7741  168.3786 N.ar    1  UNL1       -0.2109
     12 C         142.6462  140.1089  169.8288 C.ar    1  UNL1        0.2134
     13 N         143.1556  139.1745  170.8858 N.pl3   1  UNL1       -0.3275
     14 N         141.9502  141.3782  170.2220 N.ar    1  UNL1       -0.2184
     15 C         141.4409  142.3127  169.1649 C.ar    1  UNL1        0.0637
     16 C         140.7449  143.5819  169.5581 C.3     1  UNL1        0.0522
     17 C         141.6274  141.9779  167.7147 C.ar    1  UNL1        0.0344
     18 C         141.1180  142.9123  166.6577 C.ar    1  UNL1        0.0029
     19 H         143.6123  138.3414  170.6277 H       1  UNL1        0.1452
     20 H         143.0331  139.3942  171.8376 H       1  UNL1        0.1452
     21 O         143.2059  139.1045  165.4782 O.3     1  UNL1       -0.4775
     22 C         143.0352  138.5535  164.0935 C.3     1  UNL1        0.1710
     23 C         141.7951  137.7878  163.7385 C.3     1  UNL1        0.0756
     24 C         141.6245  137.2368  162.3539 C.3     1  UNL1        0.1459
     25 O         142.6939  137.4516  161.3241 O.3     1  UNL1       -0.3535
     26 C         143.9339  138.2173  161.6791 C.3     1  UNL1        0.1459
     27 C         144.1046  138.7683  163.0638 C.3     1  UNL1        0.0756
     28 C         139.9488  146.3815  159.6451 C.3     1  UNL1        0.2543
     29 O         139.2669  146.3154  160.9795 O.3     1  UNL1       -0.4553
     30 N         138.3525  143.4585  161.0231 N.pl3   1  UNL1       -0.2104
     31 H         137.5035  143.9346  160.8754 H       1  UNL1        0.1739
     32 S         138.6793  142.2391  160.2130 S.O2    1  UNL1        0.0759
     33 O         139.7657  142.9975  159.5098 O.2     1  UNL1       -0.1499
     34 O         137.5930  141.4808  160.9163 O.2     1  UNL1       -0.1499
     35 C         139.0062  141.0197  159.4029 C.ar    1  UNL1        0.1526
     36 C         138.5392  140.9165  157.9812 C.ar    1  UNL1        0.0248
     37 C         138.8660  139.6972  157.1710 C.ar    1  UNL1        0.0312
     38 C         139.6599  138.5811  157.7826 C.ar    1  UNL1        0.1425
     39 F         139.9868  137.3617  156.9724 F       1  UNL1       -0.2041
     40 C         140.1270  138.6844  159.2043 C.ar    1  UNL1        0.0606
     41 C         139.8002  139.9037  160.0144 C.ar    1  UNL1        0.1611
     42 F         140.2673  140.0069  161.4361 F       1  UNL1       -0.2027
@<TRIPOS>BOND
     1    28    29    1
     2    29     1    1
     3     1     2   ar
     4     2     3   ar
     5     3     4   ar
     6     4     7    1
     7     7     8   ar
     8     8     9   ar
     9     9    21    1
    10    21    22    1
    11    22    23    1
    12    23    24    1
    13    24    25    1
    14    25    26    1
    15    26    27    1
    16     9    10   ar
    17    10    11   ar
    18    11    12   ar
    19    12    13    1
    20    12    14   ar
    21    14    15   ar
    22    15    16    1
    23    15    17   ar
    24    17    18   ar
    25     4     5   ar
    26     5     6   ar
    27     6    30    1
    28    30    32    1
    29    32    33    2
    30    32    34    2
    31    32    35    1
    32    35    36   ar
    33    36    37   ar
    34    37    38   ar
    35    38    39    1
    36    38    40   ar
    37    40    41   ar
    38    41    42    1
    39     6     1   ar
    40    41    35   ar
    41    18     7   ar
    42    27    22    1
    43    17    10   ar
    44    13    19    1
    45    13    20    1
    46    30    31    1
@<TRIPOS>MOLECULE
*****
 42 46 0 0 0
SMALL
GASTEIGER

@<TRIPOS>ATOM
      1 C         139.9853  144.1397  160.3514 C.ar    1  UNL1        0.2400
      2 N         140.5175  144.2082  158.9507 N.ar    1  UNL1       -0.2090
      3 C         139.9481  143.3162  157.8876 C.ar    1  UNL1        0.1021
      4 C         138.8465  142.3557  158.2252 C.ar    1  UNL1        0.0208
      5 C         138.3143  142.2872  159.6260 C.ar    1  UNL1        0.0221
      6 C         138.8837  143.1791  160.6891 C.ar    1  UNL1        0.1178
      7 C         138.2771  141.4637  157.1621 C.ar    1  UNL1        0.0047
      8 C         136.9431  141.7796  156.5533 C.ar    1  UNL1        0.0385
      9 C         136.3738  140.8876  155.4903 C.ar    1  UNL1        0.1560
     10 C         137.1384  139.6797  155.0360 C.ar    1  UNL1        0.1191
     11 N         136.5689  138.7877  153.9729 N.ar    1  UNL1       -0.2109
     12 C         137.3335  137.5798  153.5186 C.ar    1  UNL1        0.2134
     13 N         136.7642  136.6879  152.4555 N.pl3   1  UNL1       -0.3275
     14 N         138.6676  137.2640  154.1275 N.ar    1  UNL1       -0.2184
     15 C         139.2370  138.1559  155.1905 C.ar    1  UNL1        0.0637
     16 C         140.5709  137.8400  155.7993 C.3     1  UNL1        0.0522
     17 C         138.4723  139.3638  155.6448 C.ar    1  UNL1        0.0344
     18 C         139.0417  140.2558  156.7078 C.ar    1  UNL1        0.0029
     19 H         135.8886  136.8952  152.0560 H       1  UNL1        0.1452
     20 H         137.2660  135.8951  152.1574 H       1  UNL1        0.1452
     21 O         135.0397  141.2035  154.8814 O.3     1  UNL1       -0.4775
     22 C         133.7787  140.8314  155.6036 C.3     1  UNL1        0.1710
     23 C         132.4698  141.4338  155.1863 C.3     1  UNL1        0.0756
     24 C         131.2089  141.0617  155.9084 C.3     1  UNL1        0.1459
     25 O         131.2568  140.0873  157.0478 O.3     1  UNL1       -0.3535
     26 C         132.5656  139.4850  157.4651 C.3     1  UNL1        0.1459
     27 C         133.8266  139.8571  156.7430 C.3     1  UNL1        0.0756
     28 C         139.8283  146.2821  161.8125 C.3     1  UNL1        0.2543
     29 O         140.5547  145.0316  161.4145 O.3     1  UNL1       -0.4553
     30 N         138.3515  143.1106  162.0898 N.pl3   1  UNL1       -0.2104
     31 H         137.9628  143.9124  162.5084 H       1  UNL1        0.1739
     32 S         138.4117  141.8206  162.8527 S.O2    1  UNL1        0.0759
     33 O         136.9185  141.7033  162.7721 O.2     1  UNL1       -0.1499
     34 O         139.9049  141.9378  162.9333 O.2     1  UNL1       -0.1499
     35 C         138.4718  140.5304  163.6156 C.ar    1  UNL1        0.1526
     36 C         138.2641  140.5272  165.1012 C.ar    1  UNL1        0.0248
     37 C         138.3242  139.2372  165.8641 C.ar    1  UNL1        0.0312
     38 C         138.5919  137.9503  165.1415 C.ar    1  UNL1        0.1425
     39 F         138.6520  136.6602  165.9044 F       1  UNL1       -0.2041
     40 C         138.7996  137.9535  163.6560 C.ar    1  UNL1        0.0606
     41 C         138.7395  139.2436  162.8930 C.ar    1  UNL1        0.1611
     42 F         138.9472  139.2467  161.4075 F       1  UNL1       -0.2027
@<TRIPOS>BOND
     1    28    29    1
     2    29     1    1
     3     1     2   ar
     4     2     3   ar
     5     3     4   ar
     6     4     7    1
     7     7     8   ar
     8     8     9   ar
     9     9    21    1
    10    21    22    1
    11    22    23    1
    12    23    24    1
    13    24    25    1
    14    25    26    1
    15    26    27    1
    16     9    10   ar
    17    10    11   ar
    18    11    12   ar
    19    12    13    1
    20    12    14   ar
    21    14    15   ar
    22    15    16    1
    23    15    17   ar
    24    17    18   ar
    25     4     5   ar
    26     5     6   ar
    27     6    30    1
    28    30    32    1
    29    32    33    2
    30    32    34    2
    31    32    35    1
    32    35    36   ar
    33    36    37   ar
    34    37    38   ar
    35    38    39    1
    36    38    40   ar
    37    40    41   ar
    38    41    42    1
    39     6     1   ar
    40    41    35   ar
    41    18     7   ar
    42    27    22    1
    43    17    10   ar
    44    13    19    1
    45    13    20    1
    46    30    31    1
@<TRIPOS>MOLECULE
*****
 42 46 0 0 0
SMALL
GASTEIGER

@<TRIPOS>ATOM
      1 C         142.5599  137.8421  158.0294 C.ar    1  UNL1        0.2400
      2 N         142.4261  138.5448  156.7110 N.ar    1  UNL1       -0.2090
      3 C         141.9959  139.9812  156.6669 C.ar    1  UNL1        0.1021
      4 C         141.6995  140.7147  157.9412 C.ar    1  UNL1        0.0208
      5 C         141.8333  140.0120  159.2597 C.ar    1  UNL1        0.0221
      6 C         142.2635  138.5758  159.3038 C.ar    1  UNL1        0.1178
      7 C         141.2692  142.1511  157.8971 C.ar    1  UNL1        0.0047
      8 C         141.6297  143.0768  159.0210 C.ar    1  UNL1        0.0385
      9 C         141.1995  144.5131  158.9769 C.ar    1  UNL1        0.1560
     10 C         140.4088  145.0236  157.8089 C.ar    1  UNL1        0.1191
     11 N         139.9785  146.4600  157.7648 N.ar    1  UNL1       -0.2109
     12 C         139.1878  146.9705  156.5969 C.ar    1  UNL1        0.2134
     13 N         138.7576  148.4068  156.5528 N.pl3   1  UNL1       -0.3275
     14 N         138.8273  146.0447  155.4730 N.ar    1  UNL1       -0.2184
     15 C         139.2575  144.6085  155.5171 C.ar    1  UNL1        0.0637
     16 C         138.8971  143.6827  154.3933 C.3     1  UNL1        0.0522
     17 C         140.0483  144.0979  156.6851 C.ar    1  UNL1        0.0344
     18 C         140.4785  142.6617  156.7292 C.ar    1  UNL1        0.0029
     19 H         138.9942  149.0144  157.2904 H       1  UNL1        0.1452
     20 H         138.2386  148.7419  155.7862 H       1  UNL1        0.1452
     21 O         141.5600  145.4389  160.1007 O.3     1  UNL1       -0.4775
     22 C         141.0871  145.1468  161.4940 C.3     1  UNL1        0.1710
     23 C         139.6229  145.1999  161.8157 C.3     1  UNL1        0.0756
     24 C         139.1501  144.9078  163.2089 C.3     1  UNL1        0.1459
     25 O         140.1415  144.5627  164.2805 O.3     1  UNL1       -0.3535
     26 C         141.6056  144.5097  163.9588 C.3     1  UNL1        0.1459
     27 C         142.0784  144.8017  162.5655 C.3     1  UNL1        0.0756
     28 C         142.8410  135.5406  156.8574 C.3     1  UNL1        0.2543
     29 O         142.9901  136.4059  158.0735 O.3     1  UNL1       -0.4553
     30 N         142.3973  137.8731  160.6222 N.pl3   1  UNL1       -0.2104
     31 H         143.1126  137.2101  160.7563 H       1  UNL1        0.1739
     32 S         141.4412  138.1806  161.7364 S.O2    1  UNL1        0.0759
     33 O         142.5735  138.7199  162.5591 O.2     1  UNL1       -0.1499
     34 O         140.3089  137.6412  160.9137 O.2     1  UNL1       -0.1499
     35 C         140.4852  138.4881  162.8507 C.ar    1  UNL1        0.1526
     36 C         140.0850  137.4105  163.8144 C.ar    1  UNL1        0.0248
     37 C         139.1290  137.7179  164.9286 C.ar    1  UNL1        0.0312
     38 C         138.5732  139.1030  165.0791 C.ar    1  UNL1        0.1425
     39 F         137.6172  139.4105  166.1934 F       1  UNL1       -0.2041
     40 C         138.9734  140.1806  164.1154 C.ar    1  UNL1        0.0606
     41 C         139.9294  139.8731  163.0012 C.ar    1  UNL1        0.1611
     42 F         140.3295  140.9507  162.0375 F       1  UNL1       -0.2027
@<TRIPOS>BOND
     1    28    29    1
     2    29     1    1
     3     1     2   ar
     4     2     3   ar
     5     3     4   ar
     6     4     7    1
     7     7     8   ar
     8     8     9   ar
     9     9    21    1
    10    21    22    1
    11    22    23    1
    12    23    24    1
    13    24    25    1
    14    25    26    1
    15    26    27    1
    16     9    10   ar
    17    10    11   ar
    18    11    12   ar
    19    12    13    1
    20    12    14   ar
    21    14    15   ar
    22    15    16    1
    23    15    17   ar
    24    17    18   ar
    25     4     5   ar
    26     5     6   ar
    27     6    30    1
    28    30    32    1
    29    32    33    2
    30    32    34    2
    31    32    35    1
    32    35    36   ar
    33    36    37   ar
    34    37    38   ar
    35    38    39    1
    36    38    40   ar
    37    40    41   ar
    38    41    42    1
    39     6     1   ar
    40    41    35   ar
    41    18     7   ar
    42    27    22    1
    43    17    10   ar
    44    13    19    1
    45    13    20    1
    46    30    31    1
@<TRIPOS>MOLECULE
*****
 42 46 0 0 0
SMALL
GASTEIGER

@<TRIPOS>ATOM
      1 C         139.6957  137.4164  155.6029 C.ar    1  UNL1        0.2400
      2 N         139.0351  138.3100  156.6105 N.ar    1  UNL1       -0.2090
      3 C         139.7985  138.7752  157.8150 C.ar    1  UNL1        0.1021
      4 C         141.2225  138.3468  158.0119 C.ar    1  UNL1        0.0208
      5 C         141.8831  137.4533  157.0044 C.ar    1  UNL1        0.0221
      6 C         141.1197  136.9881  155.7999 C.ar    1  UNL1        0.1178
      7 C         141.9859  138.8120  159.2165 C.ar    1  UNL1        0.0047
      8 C         141.8790  138.0588  160.5092 C.ar    1  UNL1        0.0385
      9 C         142.6424  138.5240  161.7136 C.ar    1  UNL1        0.1560
     10 C         143.5127  139.7425  161.6254 C.ar    1  UNL1        0.1191
     11 N         144.2761  140.2077  162.8299 N.ar    1  UNL1       -0.2109
     12 C         145.1464  141.4262  162.7417 C.ar    1  UNL1        0.2134
     13 N         145.9098  141.8914  163.9461 N.pl3   1  UNL1       -0.3275
     14 N         145.2533  142.1795  161.4489 N.ar    1  UNL1       -0.2184
     15 C         144.4899  141.7143  160.2445 C.ar    1  UNL1        0.0637
     16 C         144.5968  142.4676  158.9518 C.3     1  UNL1        0.0522
     17 C         143.6196  140.4958  160.3327 C.ar    1  UNL1        0.0344
     18 C         142.8562  140.0306  159.1282 C.ar    1  UNL1        0.0029
     19 H         145.8397  141.3970  164.7946 H       1  UNL1        0.1452
     20 H         146.4810  142.6912  163.8882 H       1  UNL1        0.1452
     21 O         142.5355  137.7707  163.0064 O.3     1  UNL1       -0.4775
     22 C         141.4548  138.1151  163.9880 C.3     1  UNL1        0.1710
     23 C         140.0588  137.6094  163.7746 C.3     1  UNL1        0.0756
     24 C         138.9781  137.9539  164.7562 C.3     1  UNL1        0.1459
     25 O         139.2935  138.8040  165.9511 O.3     1  UNL1       -0.3535
     26 C         140.6895  139.3097  166.1645 C.3     1  UNL1        0.1459
     27 C         141.7701  138.9652  165.1829 C.3     1  UNL1        0.0756
     28 C         137.6188  137.5868  154.0515 C.3     1  UNL1        0.2543
     29 O         138.9324  136.9512  154.3984 O.3     1  UNL1       -0.4553
     30 N         141.7804  136.0946  154.7923 N.pl3   1  UNL1       -0.2104
     31 H         141.7760  136.3401  153.8389 H       1  UNL1        0.1739
     32 S         142.4476  134.8270  155.2373 S.O2    1  UNL1        0.0759
     33 O         141.1054  134.1770  155.3983 O.2     1  UNL1       -0.1499
     34 O         143.7898  135.4771  155.0764 O.2     1  UNL1       -0.1499
     35 C         143.1149  133.5594  155.6824 C.ar    1  UNL1        0.1526
     36 C         143.2506  132.4089  154.7296 C.ar    1  UNL1        0.0248
     37 C         143.9178  131.1413  155.1745 C.ar    1  UNL1        0.0312
     38 C         144.4492  131.0242  156.5723 C.ar    1  UNL1        0.1425
     39 F         145.1165  129.7566  157.0174 F       1  UNL1       -0.2041
     40 C         144.3135  132.1748  157.5251 C.ar    1  UNL1        0.0606
     41 C         143.6463  133.4424  157.0801 C.ar    1  UNL1        0.1611
     42 F         143.5105  134.5929  158.0329 F       1  UNL1       -0.2027
@<TRIPOS>BOND
     1    28    29    1
     2    29     1    1
     3     1     2   ar
     4     2     3   ar
     5     3     4   ar
     6     4     7    1
     7     7     8   ar
     8     8     9   ar
     9     9    21    1
    10    21    22    1
    11    22    23    1
    12    23    24    1
    13    24    25    1
    14    25    26    1
    15    26    27    1
    16     9    10   ar
    17    10    11   ar
    18    11    12   ar
    19    12    13    1
    20    12    14   ar
    21    14    15   ar
    22    15    16    1
    23    15    17   ar
    24    17    18   ar
    25     4     5   ar
    26     5     6   ar
    27     6    30    1
    28    30    32    1
    29    32    33    2
    30    32    34    2
    31    32    35    1
    32    35    36   ar
    33    36    37   ar
    34    37    38   ar
    35    38    39    1
    36    38    40   ar
    37    40    41   ar
    38    41    42    1
    39     6     1   ar
    40    41    35   ar
    41    18     7   ar
    42    27    22    1
    43    17    10   ar
    44    13    19    1
    45    13    20    1
    46    30    31    1
@<TRIPOS>MOLECULE
*****
 42 46 0 0 0
SMALL
GASTEIGER

@<TRIPOS>ATOM
      1 C         140.2829  144.8579  160.1279 C.ar    1  UNL1        0.2400
      2 N         141.4264  145.0942  159.1863 N.ar    1  UNL1       -0.2090
      3 C         142.0728  143.9359  158.4858 C.ar    1  UNL1        0.1021
      4 C         141.5756  142.5414  158.7268 C.ar    1  UNL1        0.0208
      5 C         140.4321  142.3051  159.6684 C.ar    1  UNL1        0.0221
      6 C         139.7857  143.4633  160.3689 C.ar    1  UNL1        0.1178
      7 C         142.2220  141.3831  158.0263 C.ar    1  UNL1        0.0047
      8 C         143.6593  141.4681  157.6060 C.ar    1  UNL1        0.0385
      9 C         144.3056  140.3099  156.9056 C.ar    1  UNL1        0.1560
     10 C         143.5145  139.0666  156.6254 C.ar    1  UNL1        0.1191
     11 N         144.1609  137.9083  155.9248 N.ar    1  UNL1       -0.2109
     12 C         143.3698  136.6651  155.6446 C.ar    1  UNL1        0.2134
     13 N         144.0161  135.5068  154.9442 N.pl3   1  UNL1       -0.3275
     14 N         141.9323  136.5801  156.0649 N.ar    1  UNL1       -0.2184
     15 C         141.2860  137.7384  156.7654 C.ar    1  UNL1        0.0637
     16 C         139.8487  137.6534  157.1857 C.3     1  UNL1        0.0522
     17 C         142.0771  138.9816  157.0456 C.ar    1  UNL1        0.0344
     18 C         141.4309  140.1399  157.7461 C.ar    1  UNL1        0.0029
     19 H         144.9595  135.5626  154.6683 H       1  UNL1        0.1452
     20 H         143.4968  134.6908  154.7603 H       1  UNL1        0.1452
     21 O         145.7431  140.3948  156.4853 O.3     1  UNL1       -0.4775
     22 C         146.1414  141.2941  155.3528 C.3     1  UNL1        0.1710
     23 C         147.1031  142.4202  155.5919 C.3     1  UNL1        0.0756
     24 C         147.5015  143.3196  154.4594 C.3     1  UNL1        0.1459
     25 O         146.9381  143.0928  153.0878 O.3     1  UNL1       -0.3535
     26 C         145.9765  141.9667  152.8487 C.3     1  UNL1        0.1459
     27 C         145.5782  141.0674  153.9812 C.3     1  UNL1        0.0756
     28 C         139.9848  146.3184  162.2557 C.3     1  UNL1        0.2543
     29 O         139.6365  146.0161  160.8284 O.3     1  UNL1       -0.4553
     30 N         138.6422  143.2270  161.3105 N.pl3   1  UNL1       -0.2104
     31 H         137.8902  143.8616  161.3406 H       1  UNL1        0.1739
     32 S         138.6446  142.0239  162.2062 S.O2    1  UNL1        0.0759
     33 O         137.4678  141.4670  161.4612 O.2     1  UNL1       -0.1499
     34 O         139.8214  142.5808  162.9511 O.2     1  UNL1       -0.1499
     35 C         138.6469  140.8206  163.1019 C.ar    1  UNL1        0.1526
     36 C         138.1691  140.9395  164.5188 C.ar    1  UNL1        0.0248
     37 C         138.1714  139.7364  165.4145 C.ar    1  UNL1        0.0312
     38 C         138.6515  138.4143  164.8934 C.ar    1  UNL1        0.1425
     39 F         138.6538  137.2111  165.7891 F       1  UNL1       -0.2041
     40 C         139.1292  138.2954  163.4765 C.ar    1  UNL1        0.0606
     41 C         139.1270  139.4986  162.5808 C.ar    1  UNL1        0.1611
     42 F         139.6047  139.3797  161.1639 F       1  UNL1       -0.2027
@<TRIPOS>BOND
     1    28    29    1
     2    29     1    1
     3     1     2   ar
     4     2     3   ar
     5     3     4   ar
     6     4     7    1
     7     7     8   ar
     8     8     9   ar
     9     9    21    1
    10    21    22    1
    11    22    23    1
    12    23    24    1
    13    24    25    1
    14    25    26    1
    15    26    27    1
    16     9    10   ar
    17    10    11   ar
    18    11    12   ar
    19    12    13    1
    20    12    14   ar
    21    14    15   ar
    22    15    16    1
    23    15    17   ar
    24    17    18   ar
    25     4     5   ar
    26     5     6   ar
    27     6    30    1
    28    30    32    1
    29    32    33    2
    30    32    34    2
    31    32    35    1
    32    35    36   ar
    33    36    37   ar
    34    37    38   ar
    35    38    39    1
    36    38    40   ar
    37    40    41   ar
    38    41    42    1
    39     6     1   ar
    40    41    35   ar
    41    18     7   ar
    42    27    22    1
    43    17    10   ar
    44    13    19    1
    45    13    20    1
    46    30    31    1
@<TRIPOS>MOLECULE
*****
 42 46 0 0 0
SMALL
GASTEIGER

@<TRIPOS>ATOM
      1 C         138.0648  143.2038  163.1681 C.ar    1  UNL1        0.2400
      2 N         137.9511  143.6416  161.7379 N.ar    1  UNL1       -0.2090
      3 C         138.4157  142.7350  160.6369 C.ar    1  UNL1        0.1021
      4 C         138.9939  141.3907  160.9660 C.ar    1  UNL1        0.0208
      5 C         139.1076  140.9528  162.3961 C.ar    1  UNL1        0.0221
      6 C         138.6431  141.8594  163.4972 C.ar    1  UNL1        0.1178
      7 C         139.4585  140.4840  159.8649 C.ar    1  UNL1        0.0047
      8 C         138.6457  140.3490  158.6114 C.ar    1  UNL1        0.0385
      9 C         139.1103  139.4424  157.5104 C.ar    1  UNL1        0.1560
     10 C         140.3876  138.6709  157.6629 C.ar    1  UNL1        0.1191
     11 N         140.8521  137.7643  156.5618 N.ar    1  UNL1       -0.2109
     12 C         142.1295  136.9928  156.7142 C.ar    1  UNL1        0.2134
     13 N         142.5940  136.0862  155.6132 N.pl3   1  UNL1       -0.3275
     14 N         142.9422  137.1279  157.9677 N.ar    1  UNL1       -0.2184
     15 C         142.4777  138.0344  159.0687 C.ar    1  UNL1        0.0637
     16 C         143.2904  138.1695  160.3222 C.3     1  UNL1        0.0522
     17 C         141.2003  138.8060  158.9163 C.ar    1  UNL1        0.0344
     18 C         140.7358  139.7125  160.0173 C.ar    1  UNL1        0.0029
     19 H         142.0606  135.9975  154.7905 H       1  UNL1        0.1452
     20 H         143.4324  135.5798  155.7133 H       1  UNL1        0.1452
     21 O         138.2975  139.3073  156.2569 O.3     1  UNL1       -0.4775
     22 C         137.6030  140.5054  155.6806 C.3     1  UNL1        0.1710
     23 C         136.1107  140.6249  155.7754 C.3     1  UNL1        0.0756
     24 C         135.4161  141.8230  155.1991 C.3     1  UNL1        0.1459
     25 O         136.2139  142.9017  154.5281 O.3     1  UNL1       -0.3535
     26 C         137.7061  142.7822  154.4334 C.3     1  UNL1        0.1459
     27 C         138.4006  141.5841  155.0097 C.3     1  UNL1        0.0756
     28 C         138.6016  144.8709  165.0871 C.3     1  UNL1        0.2543
     29 O         137.6003  144.1103  164.2692 O.3     1  UNL1       -0.4553
     30 N         138.7568  141.4215  164.9274 N.pl3   1  UNL1       -0.2104
     31 H         138.0531  141.6611  165.5729 H       1  UNL1        0.1739
     32 S         139.9426  140.6188  165.3740 S.O2    1  UNL1        0.0759
     33 O         139.0795  139.3956  165.4670 O.2     1  UNL1       -0.1499
     34 O         140.8057  141.8420  165.2809 O.2     1  UNL1       -0.1499
     35 C         141.1284  139.8160  165.8206 C.ar    1  UNL1        0.1526
     36 C         141.6223  139.9297  167.2324 C.ar    1  UNL1        0.0248
     37 C         142.8081  139.1270  167.6791 C.ar    1  UNL1        0.0312
     38 C         143.4999  138.2105  166.7139 C.ar    1  UNL1        0.1425
     39 F         144.6857  137.4077  167.1606 F       1  UNL1       -0.2041
     40 C         143.0060  138.0969  165.3022 C.ar    1  UNL1        0.0606
     41 C         141.8202  138.8996  164.8555 C.ar    1  UNL1        0.1611
     42 F         141.3263  138.7859  163.4437 F       1  UNL1       -0.2027
@<TRIPOS>BOND
     1    28    29    1
     2    29     1    1
     3     1     2   ar
     4     2     3   ar
     5     3     4   ar
     6     4     7    1
     7     7     8   ar
     8     8     9   ar
     9     9    21    1
    10    21    22    1
    11    22    23    1
    12    23    24    1
    13    24    25    1
    14    25    26    1
    15    26    27    1
    16     9    10   ar
    17    10    11   ar
    18    11    12   ar
    19    12    13    1
    20    12    14   ar
    21    14    15   ar
    22    15    16    1
    23    15    17   ar
    24    17    18   ar
    25     4     5   ar
    26     5     6   ar
    27     6    30    1
    28    30    32    1
    29    32    33    2
    30    32    34    2
    31    32    35    1
    32    35    36   ar
    33    36    37   ar
    34    37    38   ar
    35    38    39    1
    36    38    40   ar
    37    40    41   ar
    38    41    42    1
    39     6     1   ar
    40    41    35   ar
    41    18     7   ar
    42    27    22    1
    43    17    10   ar
    44    13    19    1
    45    13    20    1
    46    30    31    1
