@<TRIPOS>MOLECULE
*****
 20 21 0 0 0
SMALL
GASTEIGER

@<TRIPOS>ATOM
      1 N         141.5288  139.9235  163.8861 N.am    1  UNL1       -0.2606
      2 C         141.0299  141.2469  163.3863 C.3     1  UNL1        0.1169
      3 C         140.9879  142.1951  164.5478 C.3     1  UNL1        0.1212
      4 N         141.4608  141.4578  165.7655 N.am    1  UNL1       -0.2413
      5 C         141.7951  140.0539  165.3565 C.2     1  UNL1        0.3111
      6 O         142.3060  138.9705  166.2594 O.2     1  UNL1       -0.2520
      7 C         141.5787  142.0248  167.1492 C.ar    1  UNL1        0.0562
      8 C         140.3840  142.6472  167.8090 C.ar    1  UNL1        0.0150
      9 C         140.5020  143.2142  169.1926 C.ar    1  UNL1        0.0021
     10 C         141.8146  143.1589  169.9165 C.ar    1  UNL1        0.0115
     11 C         143.0093  142.5366  169.2567 C.ar    1  UNL1        0.0589
     12 CL        144.3219  142.4813  169.9805 Cl      1  UNL1       -0.0822
     13 C         142.8913  141.9695  167.8730 C.ar    1  UNL1        0.0263
     14 C         141.7266  138.6869  163.0605 C.3     1  UNL1        0.1123
     15 C         140.8482  137.4908  163.2788 C.3     1  UNL1        0.0939
     16 N         139.4003  137.6766  163.6240 N.3     1  UNL1       -0.2712
     17 C         138.3558  138.8420  165.6978 C.3     1  UNL1        0.0188
     18 C         138.9586  137.6274  165.0566 C.3     1  UNL1        0.0722
     19 C         138.3943  137.9117  162.5366 C.3     1  UNL1        0.0722
     20 C         138.1514  139.3015  162.0273 C.3     1  UNL1        0.0188
@<TRIPOS>BOND
     1    17    18    1
     2    18    16    1
     3    16    19    1
     4    19    20    1
     5    16    15    1
     6    15    14    1
     7    14     1    1
     8     1     2    1
     9     2     3    1
    10     3     4    1
    11     4     7    1
    12     7     8   ar
    13     8     9   ar
    14     9    10   ar
    15    10    11   ar
    16    11    12    1
    17    11    13   ar
    18     4     5   am
    19     5     6    2
    20     5     1   am
    21    13     7   ar
@<TRIPOS>MOLECULE
*****
 20 21 0 0 0
SMALL
GASTEIGER

@<TRIPOS>ATOM
      1 N         141.2788  140.6860  163.5374 N.am    1  UNL1       -0.2606
      2 C         142.6800  140.7010  164.0727 C.3     1  UNL1        0.1169
      3 C         142.6079  140.9263  165.5539 C.3     1  UNL1        0.1212
      4 N         141.1622  141.0506  165.9341 N.am    1  UNL1       -0.2413
      5 C         140.3408  140.9020  164.6878 C.2     1  UNL1        0.3111
      6 O         138.8441  140.9594  164.6062 O.2     1  UNL1       -0.2520
      7 C         140.6311  141.2826  167.3177 C.ar    1  UNL1        0.0562
      8 C         139.9246  140.1772  168.0450 C.ar    1  UNL1        0.0150
      9 C         139.3936  140.4093  169.4285 C.ar    1  UNL1        0.0021
     10 C         139.5691  141.7467  170.0847 C.ar    1  UNL1        0.0115
     11 C         140.2756  142.8520  169.3574 C.ar    1  UNL1        0.0589
     12 CL        140.4511  144.1894  170.0136 Cl      1  UNL1       -0.0822
     13 C         140.8066  142.6200  167.9739 C.ar    1  UNL1        0.0263
     14 C         140.8849  140.4895  162.1035 C.3     1  UNL1        0.1123
     15 C         140.6634  139.1054  161.5695 C.3     1  UNL1        0.0939
     16 N         140.1016  138.0383  162.4615 N.3     1  UNL1       -0.2712
     17 C         141.2072  137.2624  164.6808 C.3     1  UNL1        0.0188
     18 C         141.0249  137.1147  163.1993 C.3     1  UNL1        0.0722
     19 C         138.6165  137.8949  162.6158 C.3     1  UNL1        0.0722
     20 C         137.6925  138.6008  161.6681 C.3     1  UNL1        0.0188
@<TRIPOS>BOND
     1    17    18    1
     2    18    16    1
     3    16    19    1
     4    19    20    1
     5    16    15    1
     6    15    14    1
     7    14     1    1
     8     1     2    1
     9     2     3    1
    10     3     4    1
    11     4     7    1
    12     7     8   ar
    13     8     9   ar
    14     9    10   ar
    15    10    11   ar
    16    11    12    1
    17    11    13   ar
    18     4     5   am
    19     5     6    2
    20     5     1   am
    21    13     7   ar
@<TRIPOS>MOLECULE
*****
 20 21 0 0 0
SMALL
GASTEIGER

@<TRIPOS>ATOM
      1 N         141.8635  140.9288  163.6543 N.am    1  UNL1       -0.2606
      2 C         142.6394  139.7954  164.2572 C.3     1  UNL1        0.1169
      3 C         142.3137  139.7373  165.7202 C.3     1  UNL1        0.1212
      4 N         141.3366  140.8347  166.0216 N.am    1  UNL1       -0.2413
      5 C         141.0583  141.5711  164.7448 C.2     1  UNL1        0.3111
      6 O         140.1367  142.7439  164.5863 O.2     1  UNL1       -0.2520
      7 C         140.7421  141.1418  167.3642 C.ar    1  UNL1        0.0562
      8 C         139.9527  140.0946  168.0921 C.ar    1  UNL1        0.0150
      9 C         139.3583  140.4017  169.4346 C.ar    1  UNL1        0.0021
     10 C         139.5533  141.7561  170.0491 C.ar    1  UNL1        0.0115
     11 C         140.3427  142.8034  169.3211 C.ar    1  UNL1        0.0589
     12 CL        140.5377  144.1578  169.9356 Cl      1  UNL1       -0.0822
     13 C         140.9371  142.4962  167.9786 C.ar    1  UNL1        0.0263
     14 C         141.8883  141.3465  162.2138 C.3     1  UNL1        0.1123
     15 C         142.5391  142.6390  161.8189 C.3     1  UNL1        0.0939
     16 N         143.8742  143.0123  162.3919 N.3     1  UNL1       -0.2712
     17 C         142.9858  144.9555  163.8698 C.3     1  UNL1        0.0188
     18 C         144.0699  144.3595  163.0216 C.3     1  UNL1        0.0722
     19 C         145.0135  142.0383  162.3351 C.3     1  UNL1        0.0722
     20 C         145.7773  141.7042  163.5821 C.3     1  UNL1        0.0188
@<TRIPOS>BOND
     1    17    18    1
     2    18    16    1
     3    16    19    1
     4    19    20    1
     5    16    15    1
     6    15    14    1
     7    14     1    1
     8     1     2    1
     9     2     3    1
    10     3     4    1
    11     4     7    1
    12     7     8   ar
    13     8     9   ar
    14     9    10   ar
    15    10    11   ar
    16    11    12    1
    17    11    13   ar
    18     4     5   am
    19     5     6    2
    20     5     1   am
    21    13     7   ar
@<TRIPOS>MOLECULE
*****
 20 21 0 0 0
SMALL
GASTEIGER

@<TRIPOS>ATOM
      1 N         139.2141  140.7541  162.7070 N.am    1  UNL1       -0.2606
      2 C         138.2602  139.6615  163.0894 C.3     1  UNL1        0.1169
      3 C         138.5813  139.2354  164.4913 C.3     1  UNL1        0.1212
      4 N         139.7337  140.0647  164.9753 N.am    1  UNL1       -0.2413
      5 C         140.1248  141.0033  163.8726 C.2     1  UNL1        0.3111
      6 O         141.2321  142.0137  163.9260 O.2     1  UNL1       -0.2520
      7 C         140.3813  139.9716  166.3252 C.ar    1  UNL1        0.0562
      8 C         141.8454  139.6643  166.4351 C.ar    1  UNL1        0.0150
      9 C         142.4929  139.5713  167.7849 C.ar    1  UNL1        0.0021
     10 C         141.6764  139.7856  169.0248 C.ar    1  UNL1        0.0115
     11 C         140.2124  140.0929  168.9149 C.ar    1  UNL1        0.0589
     12 CL        139.3958  140.3071  170.1548 Cl      1  UNL1       -0.0822
     13 C         139.5648  140.1859  167.5651 C.ar    1  UNL1        0.0263
     14 C         139.2509  141.4716  161.3903 C.3     1  UNL1        0.1123
     15 C         138.4204  142.7036  161.1840 C.3     1  UNL1        0.0939
     16 N         138.6573  143.9184  162.0315 N.3     1  UNL1       -0.2712
     17 C         138.0320  143.9682  164.5526 C.3     1  UNL1        0.0188
     18 C         137.6914  144.2709  163.1236 C.3     1  UNL1        0.0722
     19 C         139.8601  144.7805  161.7869 C.3     1  UNL1        0.0722
     20 C         139.7190  146.2736  161.7572 C.3     1  UNL1        0.0188
@<TRIPOS>BOND
     1    17    18    1
     2    18    16    1
     3    16    19    1
     4    19    20    1
     5    16    15    1
     6    15    14    1
     7    14     1    1
     8     1     2    1
     9     2     3    1
    10     3     4    1
    11     4     7    1
    12     7     8   ar
    13     8     9   ar
    14     9    10   ar
    15    10    11   ar
    16    11    12    1
    17    11    13   ar
    18     4     5   am
    19     5     6    2
    20     5     1   am
    21    13     7   ar
@<TRIPOS>MOLECULE
*****
 20 21 0 0 0
SMALL
GASTEIGER

@<TRIPOS>ATOM
      1 N         141.8437  140.9450  163.4905 N.am    1  UNL1       -0.2606
      2 C         142.0153  139.4582  163.3893 C.3     1  UNL1        0.1169
      3 C         141.9007  138.8834  164.7700 C.3     1  UNL1        0.1212
      4 N         141.6583  140.0148  165.7246 N.am    1  UNL1       -0.2413
      5 C         141.6231  141.2889  164.9338 C.2     1  UNL1        0.3111
      6 O         141.4055  142.6654  165.4888 O.2     1  UNL1       -0.2520
      7 C         141.4821  139.8934  167.2093 C.ar    1  UNL1        0.0562
      8 C         142.6374  139.4758  168.0700 C.ar    1  UNL1        0.0150
      9 C         142.4611  139.3544  169.5546 C.ar    1  UNL1        0.0021
     10 C         141.1296  139.6506  170.1785 C.ar    1  UNL1        0.0115
     11 C         139.9743  140.0682  169.3178 C.ar    1  UNL1        0.0589
     12 CL        138.6427  140.3643  169.9417 Cl      1  UNL1       -0.0822
     13 C         140.1505  140.1896  167.8332 C.ar    1  UNL1        0.0263
     14 C         141.8855  141.9170  162.3489 C.3     1  UNL1        0.1123
     15 C         143.1851  142.5517  161.9513 C.3     1  UNL1        0.0939
     16 N         144.2652  142.7522  162.9727 N.3     1  UNL1       -0.2712
     17 C         145.4810  140.7095  164.0209 C.3     1  UNL1        0.0188
     18 C         145.4403  141.8208  163.0144 C.3     1  UNL1        0.0722
     19 C         144.1703  143.8841  163.9523 C.3     1  UNL1        0.0722
     20 C         143.4455  145.1424  163.5764 C.3     1  UNL1        0.0188
@<TRIPOS>BOND
     1    17    18    1
     2    18    16    1
     3    16    19    1
     4    19    20    1
     5    16    15    1
     6    15    14    1
     7    14     1    1
     8     1     2    1
     9     2     3    1
    10     3     4    1
    11     4     7    1
    12     7     8   ar
    13     8     9   ar
    14     9    10   ar
    15    10    11   ar
    16    11    12    1
    17    11    13   ar
    18     4     5   am
    19     5     6    2
    20     5     1   am
    21    13     7   ar
@<TRIPOS>MOLECULE
*****
 20 21 0 0 0
SMALL
GASTEIGER

@<TRIPOS>ATOM
      1 N         141.2259  140.3852  163.8137 N.am    1  UNL1       -0.2606
      2 C         140.4558  141.6579  163.6208 C.3     1  UNL1        0.1169
      3 C         140.5214  142.4378  164.9004 C.3     1  UNL1        0.1212
      4 N         141.3320  141.6471  165.8842 N.am    1  UNL1       -0.2413
      5 C         141.7674  140.3785  165.2126 C.2     1  UNL1        0.3111
      6 O         142.5984  139.2937  165.8311 O.2     1  UNL1       -0.2520
      7 C         141.6511  142.0537  167.2924 C.ar    1  UNL1        0.0562
      8 C         143.0759  142.0804  167.7607 C.ar    1  UNL1        0.0150
      9 C         143.3950  142.4870  169.1688 C.ar    1  UNL1        0.0021
     10 C         142.2893  142.8668  170.1086 C.ar    1  UNL1        0.0115
     11 C         140.8646  142.8401  169.6403 C.ar    1  UNL1        0.0589
     12 CL        139.7589  143.2199  170.5801 Cl      1  UNL1       -0.0822
     13 C         140.5455  142.4335  168.2322 C.ar    1  UNL1        0.0263
     14 C         141.4203  139.3082  162.7879 C.3     1  UNL1        0.1123
     15 C         140.7687  137.9699  162.9728 C.3     1  UNL1        0.0939
     16 N         139.3313  137.8873  163.3937 N.3     1  UNL1       -0.2712
     17 C         138.3953  138.8798  165.6047 C.3     1  UNL1        0.0188
     18 C         138.9825  137.7282  164.8439 C.3     1  UNL1        0.0722
     19 C         138.2429  137.9637  162.3645 C.3     1  UNL1        0.0722
     20 C         137.7903  139.2978  161.8493 C.3     1  UNL1        0.0188
@<TRIPOS>BOND
     1    17    18    1
     2    18    16    1
     3    16    19    1
     4    19    20    1
     5    16    15    1
     6    15    14    1
     7    14     1    1
     8     1     2    1
     9     2     3    1
    10     3     4    1
    11     4     7    1
    12     7     8   ar
    13     8     9   ar
    14     9    10   ar
    15    10    11   ar
    16    11    12    1
    17    11    13   ar
    18     4     5   am
    19     5     6    2
    20     5     1   am
    21    13     7   ar
@<TRIPOS>MOLECULE
*****
 20 21 0 0 0
SMALL
GASTEIGER

@<TRIPOS>ATOM
      1 N         142.0574  140.5964  163.6144 N.am    1  UNL1       -0.2606
      2 C         140.8567  141.3989  163.2088 C.3     1  UNL1        0.1169
      3 C         140.1135  141.7825  164.4540 C.3     1  UNL1        0.1212
      4 N         140.8549  141.2172  165.6291 N.am    1  UNL1       -0.2413
      5 C         142.0563  140.4842  165.1102 C.2     1  UNL1        0.3111
      6 O         143.0773  139.7652  165.9411 O.2     1  UNL1       -0.2520
      7 C         140.4636  141.3600  167.0702 C.ar    1  UNL1        0.0562
      8 C         139.8551  140.1997  167.8006 C.ar    1  UNL1        0.0150
      9 C         139.4638  140.3425  169.2415 C.ar    1  UNL1        0.0021
     10 C         139.6810  141.6455  169.9521 C.ar    1  UNL1        0.0115
     11 C         140.2895  142.8058  169.2217 C.ar    1  UNL1        0.0589
     12 CL        140.5067  144.1088  169.9323 Cl      1  UNL1       -0.0822
     13 C         140.6808  142.6630  167.7808 C.ar    1  UNL1        0.0263
     14 C         143.0797  140.0093  162.6869 C.3     1  UNL1        0.1123
     15 C         144.4664  140.5795  162.6415 C.3     1  UNL1        0.0939
     16 N         144.6970  142.0196  162.9922 N.3     1  UNL1       -0.2712
     17 C         144.3264  143.4713  165.1147 C.3     1  UNL1        0.0188
     18 C         145.0843  142.3981  164.3910 C.3     1  UNL1        0.0722
     19 C         144.5404  143.0811  161.9441 C.3     1  UNL1        0.0722
     20 C         143.1733  143.5792  161.5796 C.3     1  UNL1        0.0188
@<TRIPOS>BOND
     1    17    18    1
     2    18    16    1
     3    16    19    1
     4    19    20    1
     5    16    15    1
     6    15    14    1
     7    14     1    1
     8     1     2    1
     9     2     3    1
    10     3     4    1
    11     4     7    1
    12     7     8   ar
    13     8     9   ar
    14     9    10   ar
    15    10    11   ar
    16    11    12    1
    17    11    13   ar
    18     4     5   am
    19     5     6    2
    20     5     1   am
    21    13     7   ar
@<TRIPOS>MOLECULE
*****
 20 21 0 0 0
SMALL
GASTEIGER

@<TRIPOS>ATOM
      1 N         140.9892  141.4461  163.5058 N.am    1  UNL1       -0.2606
      2 C         140.9712  140.0525  164.0606 C.3     1  UNL1        0.1169
      3 C         141.1549  140.1429  165.5465 C.3     1  UNL1        0.1212
      4 N         141.2863  141.5922  165.9101 N.am    1  UNL1       -0.2413
      5 C         141.1839  142.3976  164.6488 C.2     1  UNL1        0.3111
      6 O         141.2625  143.8922  164.5482 O.2     1  UNL1       -0.2520
      7 C         141.4853  142.1400  167.2923 C.ar    1  UNL1        0.0562
      8 C         140.3445  142.7994  168.0091 C.ar    1  UNL1        0.0150
      9 C         140.5435  143.3471  169.3912 C.ar    1  UNL1        0.0021
     10 C         141.8832  143.2354  170.0566 C.ar    1  UNL1        0.0115
     11 C         143.0239  142.5760  169.3398 C.ar    1  UNL1        0.0589
     12 CL        144.3636  142.4643  170.0052 Cl      1  UNL1       -0.0822
     13 C         142.8250  142.0283  167.9577 C.ar    1  UNL1        0.0263
     14 C         140.8388  141.8220  162.0614 C.3     1  UNL1        0.1123
     15 C         139.5309  142.3564  161.5578 C.3     1  UNL1        0.0939
     16 N         138.2409  141.7961  162.0794 N.3     1  UNL1       -0.2712
     17 C         137.9439  139.2152  162.0604 C.3     1  UNL1        0.0188
     18 C         137.6561  140.5603  161.4623 C.3     1  UNL1        0.0722
     19 C         137.5358  142.4715  163.2180 C.3     1  UNL1        0.0722
     20 C         137.7891  143.9225  163.5020 C.3     1  UNL1        0.0188
@<TRIPOS>BOND
     1    17    18    1
     2    18    16    1
     3    16    19    1
     4    19    20    1
     5    16    15    1
     6    15    14    1
     7    14     1    1
     8     1     2    1
     9     2     3    1
    10     3     4    1
    11     4     7    1
    12     7     8   ar
    13     8     9   ar
    14     9    10   ar
    15    10    11   ar
    16    11    12    1
    17    11    13   ar
    18     4     5   am
    19     5     6    2
    20     5     1   am
    21    13     7   ar
@<TRIPOS>MOLECULE
*****
 20 21 0 0 0
SMALL
GASTEIGER

@<TRIPOS>ATOM
      1 N         141.5184  141.9710  163.7213 N.am    1  UNL1       -0.2606
      2 C         142.5692  142.8668  164.3073 C.3     1  UNL1        0.1169
      3 C         142.6910  142.5451  165.7673 C.3     1  UNL1        0.1212
      4 N         141.7155  141.4504  166.0837 N.am    1  UNL1       -0.2413
      5 C         140.9908  141.0956  164.8192 C.2     1  UNL1        0.3111
      6 O         139.9255  140.0491  164.6774 O.2     1  UNL1       -0.2520
      7 C         141.5021  140.8210  167.4285 C.ar    1  UNL1        0.0562
      8 C         142.6355  140.1200  168.1168 C.ar    1  UNL1        0.0150
      9 C         142.4222  139.4907  169.4616 C.ar    1  UNL1        0.0021
     10 C         141.0753  139.5624  170.1180 C.ar    1  UNL1        0.0115
     11 C         139.9419  140.2635  169.4297 C.ar    1  UNL1        0.0589
     12 CL        138.5951  140.3352  170.0862 Cl      1  UNL1       -0.0822
     13 C         140.1553  140.8928  168.0850 C.ar    1  UNL1        0.0263
     14 C         141.0734  141.9536  162.2890 C.3     1  UNL1        0.1123
     15 C         140.2945  143.1079  161.7315 C.3     1  UNL1        0.0939
     16 N         139.1589  143.6952  162.5162 N.3     1  UNL1       -0.2712
     17 C         139.2097  144.7050  164.9093 C.3     1  UNL1        0.0188
     18 C         139.4018  144.8597  163.4298 C.3     1  UNL1        0.0722
     19 C         137.7806  143.1178  162.3871 C.3     1  UNL1        0.0722
     20 C         137.3983  141.9043  163.1817 C.3     1  UNL1        0.0188
@<TRIPOS>BOND
     1    17    18    1
     2    18    16    1
     3    16    19    1
     4    19    20    1
     5    16    15    1
     6    15    14    1
     7    14     1    1
     8     1     2    1
     9     2     3    1
    10     3     4    1
    11     4     7    1
    12     7     8   ar
    13     8     9   ar
    14     9    10   ar
    15    10    11   ar
    16    11    12    1
    17    11    13   ar
    18     4     5   am
    19     5     6    2
    20     5     1   am
    21    13     7   ar
