@<TRIPOS>MOLECULE
*****
 36 39 0 0 0
SMALL
GASTEIGER

@<TRIPOS>ATOM
      1 C         141.6332  139.5426  162.9803 C.3     1  UNL1        0.1547
      2 C         140.4785  139.6143  163.9349 C.ar    1  UNL1        0.0007
      3 C         140.2986  138.5494  164.9759 C.ar    1  UNL1       -0.0025
      4 C         139.1439  138.6212  165.9305 C.ar    1  UNL1       -0.0003
      5 C         138.1689  139.7579  165.8442 C.ar    1  UNL1       -0.0000
      6 C         138.3487  140.8228  164.8033 C.ar    1  UNL1       -0.0003
      7 C         139.5036  140.7510  163.8486 C.ar    1  UNL1       -0.0025
      8 C         141.5179  138.7323  161.7232 C.2     1  UNL1        0.2457
      9 O         141.1387  137.2829  161.7973 O.2     1  UNL1       -0.2729
     10 N         141.7817  139.3714  160.3921 N.am    1  UNL1       -0.2680
     11 H         142.0305  140.3227  160.3435 H       1  UNL1        0.1563
     12 C         141.6663  138.5611  159.1350 C.ar    1  UNL1        0.1342
     13 C         140.3539  138.4789  158.4135 C.ar    1  UNL1        0.0345
     14 C         140.2386  137.6686  157.1564 C.ar    1  UNL1        0.0045
     15 C         141.4358  136.9406  156.6210 C.ar    1  UNL1        0.0223
     16 C         142.7482  137.0228  157.3425 C.ar    1  UNL1        0.1004
     17 N         142.8635  137.8331  158.5995 N.ar    1  UNL1       -0.2290
     18 C         141.3204  136.1303  155.3639 C.ar    1  UNL1        0.0411
     19 C         140.5661  136.5227  154.1281 C.ar    1  UNL1        0.1217
     20 N         140.7186  135.4204  153.1223 N.ar    1  UNL1       -0.1676
     21 N         141.5672  134.3467  153.7365 N.ar    1  UNL1       -0.2473
     22 C         141.9726  133.0601  153.0806 C.3     1  UNL1        0.1538
     23 C         141.9391  134.7855  155.1219 C.ar    1  UNL1        0.0967
     24 N         142.9033  140.2811  163.2827 N.3     1  UNL1       -0.2875
     25 H         143.3310  139.8157  164.0833 H       1  UNL1        0.1239
     26 C         142.8609  141.7454  163.6048 C.3     1  UNL1        0.0735
     27 C         144.3041  143.1947  165.2069 C.3     1  UNL1        0.0061
     28 C         143.1862  142.2183  164.9906 C.3     1  UNL1        0.0381
     29 C         142.3936  141.7146  166.1602 C.ar    1  UNL1       -0.0211
     30 C         142.7934  140.4412  166.8447 C.ar    1  UNL1       -0.0035
     31 C         142.0007  139.9376  168.0144 C.ar    1  UNL1        0.0100
     32 C         140.8082  140.7074  168.4995 C.ar    1  UNL1        0.0684
     33 C         140.4084  141.9808  167.8151 C.ar    1  UNL1        0.0100
     34 C         141.2010  142.4845  166.6455 C.ar    1  UNL1       -0.0035
     35 C         140.0155  140.2038  169.6692 C.1     1  UNL1        0.1004
     36 N         139.2229  139.7002  170.8388 N.1     1  UNL1       -0.1908
@<TRIPOS>BOND
     1    28    27    1
     2    28    26    1
     3    26    24    1
     4     1    24    1
     5     1     8    1
     6     8     9    2
     7     8    10   am
     8    10    12    1
     9    12    13   ar
    10    13    14   ar
    11    14    15   ar
    12    15    18    1
    13    18    19   ar
    14    19    20   ar
    15    20    21   ar
    16    21    22    1
    17    21    23   ar
    18    15    16   ar
    19    16    17   ar
    20     1     2    1
    21     2     3   ar
    22     3     4   ar
    23     4     5   ar
    24     5     6   ar
    25     6     7   ar
    26    28    29    1
    27    29    30   ar
    28    30    31   ar
    29    31    32   ar
    30    32    35    1
    31    35    36    3
    32    32    33   ar
    33    33    34   ar
    34    17    12   ar
    35     7     2   ar
    36    34    29   ar
    37    23    18   ar
    38    24    25    1
    39    10    11    1
@<TRIPOS>MOLECULE
*****
 36 39 0 0 0
SMALL
GASTEIGER

@<TRIPOS>ATOM
      1 C         140.9366  140.0306  162.3614 C.3     1  UNL1        0.1547
      2 C         142.2414  140.3757  163.0159 C.ar    1  UNL1        0.0007
      3 C         142.4488  141.7410  163.6015 C.ar    1  UNL1       -0.0025
      4 C         143.7536  142.0861  164.2560 C.ar    1  UNL1       -0.0003
      5 C         144.8511  141.0659  164.3249 C.ar    1  UNL1       -0.0000
      6 C         144.6437  139.7005  163.7394 C.ar    1  UNL1       -0.0003
      7 C         143.3388  139.3555  163.0849 C.ar    1  UNL1       -0.0025
      8 C         140.9059  139.0682  161.2112 C.2     1  UNL1        0.2457
      9 O         140.4520  137.6550  161.4277 O.2     1  UNL1       -0.2729
     10 N         141.3290  139.5190  159.8446 N.am    1  UNL1       -0.2680
     11 H         141.6269  140.4466  159.7025 H       1  UNL1        0.1563
     12 C         141.2982  138.5566  158.6944 C.ar    1  UNL1        0.1342
     13 C         142.5353  137.7953  158.3202 C.ar    1  UNL1        0.0345
     14 C         142.5045  136.8330  157.1701 C.ar    1  UNL1        0.0045
     15 C         141.2367  136.6320  156.3941 C.ar    1  UNL1        0.0223
     16 C         139.9996  137.3933  156.7682 C.ar    1  UNL1        0.1004
     17 N         140.0304  138.3556  157.9184 N.ar    1  UNL1       -0.2290
     18 C         141.2059  135.6695  155.2439 C.ar    1  UNL1        0.0411
     19 C         140.8843  136.0090  153.8186 C.ar    1  UNL1        0.1217
     20 N         140.9710  134.7481  153.0108 N.ar    1  UNL1       -0.1676
     21 N         141.3462  133.6293  153.9369 N.ar    1  UNL1       -0.2473
     22 C         141.5419  132.1931  153.5507 C.3     1  UNL1        0.1538
     23 C         141.4914  134.1988  155.3170 C.ar    1  UNL1        0.0967
     24 N         139.6625  140.6479  162.8571 N.3     1  UNL1       -0.2875
     25 H         139.9149  141.5356  163.2914 H       1  UNL1        0.1239
     26 C         138.8065  139.9110  163.8440 C.3     1  UNL1        0.0735
     27 C         139.1491  137.7178  165.1940 C.3     1  UNL1        0.0061
     28 C         139.4424  139.1739  164.9852 C.3     1  UNL1        0.0381
     29 C         140.3717  139.8930  165.9176 C.ar    1  UNL1       -0.0211
     30 C         140.0219  141.2641  166.4154 C.ar    1  UNL1       -0.0035
     31 C         140.9513  141.9831  167.3478 C.ar    1  UNL1        0.0100
     32 C         142.2303  141.3311  167.7824 C.ar    1  UNL1        0.0684
     33 C         142.5801  139.9600  167.2846 C.ar    1  UNL1        0.0100
     34 C         141.6508  139.2409  166.3522 C.ar    1  UNL1       -0.0035
     35 C         143.1597  142.0501  168.7148 C.1     1  UNL1        0.1004
     36 N         144.0890  142.7691  169.6472 N.1     1  UNL1       -0.1908
@<TRIPOS>BOND
     1    28    27    1
     2    28    26    1
     3    26    24    1
     4     1    24    1
     5     1     8    1
     6     8     9    2
     7     8    10   am
     8    10    12    1
     9    12    13   ar
    10    13    14   ar
    11    14    15   ar
    12    15    18    1
    13    18    19   ar
    14    19    20   ar
    15    20    21   ar
    16    21    22    1
    17    21    23   ar
    18    15    16   ar
    19    16    17   ar
    20     1     2    1
    21     2     3   ar
    22     3     4   ar
    23     4     5   ar
    24     5     6   ar
    25     6     7   ar
    26    28    29    1
    27    29    30   ar
    28    30    31   ar
    29    31    32   ar
    30    32    35    1
    31    35    36    3
    32    32    33   ar
    33    33    34   ar
    34    17    12   ar
    35     7     2   ar
    36    34    29   ar
    37    23    18   ar
    38    24    25    1
    39    10    11    1
@<TRIPOS>MOLECULE
*****
 36 39 0 0 0
SMALL
GASTEIGER

@<TRIPOS>ATOM
      1 C         140.7768  140.2111  162.0492 C.3     1  UNL1        0.1547
      2 C         141.5321  139.9391  163.3163 C.ar    1  UNL1        0.0007
      3 C         142.4614  140.9767  163.8729 C.ar    1  UNL1       -0.0025
      4 C         143.2167  140.7047  165.1400 C.ar    1  UNL1       -0.0003
      5 C         143.0427  139.3951  165.8505 C.ar    1  UNL1       -0.0000
      6 C         142.1134  138.3576  165.2939 C.ar    1  UNL1       -0.0003
      7 C         141.3581  138.6296  164.0268 C.ar    1  UNL1       -0.0025
      8 C         140.7914  139.2050  160.9367 C.2     1  UNL1        0.2457
      9 O         139.9612  137.9600  161.0404 O.2     1  UNL1       -0.2729
     10 N         141.6362  139.4440  159.7205 N.am    1  UNL1       -0.2680
     11 H         142.1811  140.2611  159.6524 H       1  UNL1        0.1563
     12 C         141.6508  138.4379  158.6079 C.ar    1  UNL1        0.1342
     13 C         140.4365  138.2545  157.7467 C.ar    1  UNL1        0.0345
     14 C         140.4512  137.2484  156.6342 C.ar    1  UNL1        0.0045
     15 C         141.6801  136.4258  156.3830 C.ar    1  UNL1        0.0223
     16 C         142.8944  136.6093  157.2442 C.ar    1  UNL1        0.1004
     17 N         142.8797  137.6153  158.3567 N.ar    1  UNL1       -0.2290
     18 C         141.6947  135.4198  155.2704 C.ar    1  UNL1        0.0411
     19 C         140.9709  135.5414  153.9622 C.ar    1  UNL1        0.1217
     20 N         141.2645  134.3123  153.1540 N.ar    1  UNL1       -0.1676
     21 N         142.1698  133.4311  153.9628 N.ar    1  UNL1       -0.2473
     22 C         142.7136  132.0992  153.5381 C.3     1  UNL1        0.1538
     23 C         142.4356  134.1155  155.2708 C.ar    1  UNL1        0.0967
     24 N         140.0069  141.4891  161.8946 N.3     1  UNL1       -0.2875
     25 H         140.5854  142.2309  162.2890 H       1  UNL1        0.1239
     26 C         138.6473  141.6251  162.5133 C.3     1  UNL1        0.0735
     27 C         137.8138  143.7213  163.8022 C.3     1  UNL1        0.0061
     28 C         138.4806  142.3777  163.8001 C.3     1  UNL1        0.0381
     29 C         138.9809  141.7868  165.0848 C.ar    1  UNL1       -0.0211
     30 C         138.5529  140.4083  165.4930 C.ar    1  UNL1       -0.0035
     31 C         139.0533  139.8174  166.7778 C.ar    1  UNL1        0.0100
     32 C         139.9815  140.6049  167.6542 C.ar    1  UNL1        0.0684
     33 C         140.4095  141.9834  167.2460 C.ar    1  UNL1        0.0100
     34 C         139.9092  142.5743  165.9613 C.ar    1  UNL1       -0.0035
     35 C         140.4818  140.0139  168.9390 C.1     1  UNL1        0.1004
     36 N         140.9821  139.4230  170.2237 N.1     1  UNL1       -0.1908
@<TRIPOS>BOND
     1    28    27    1
     2    28    26    1
     3    26    24    1
     4     1    24    1
     5     1     8    1
     6     8     9    2
     7     8    10   am
     8    10    12    1
     9    12    13   ar
    10    13    14   ar
    11    14    15   ar
    12    15    18    1
    13    18    19   ar
    14    19    20   ar
    15    20    21   ar
    16    21    22    1
    17    21    23   ar
    18    15    16   ar
    19    16    17   ar
    20     1     2    1
    21     2     3   ar
    22     3     4   ar
    23     4     5   ar
    24     5     6   ar
    25     6     7   ar
    26    28    29    1
    27    29    30   ar
    28    30    31   ar
    29    31    32   ar
    30    32    35    1
    31    35    36    3
    32    32    33   ar
    33    33    34   ar
    34    17    12   ar
    35     7     2   ar
    36    34    29   ar
    37    23    18   ar
    38    24    25    1
    39    10    11    1
@<TRIPOS>MOLECULE
*****
 36 39 0 0 0
SMALL
GASTEIGER

@<TRIPOS>ATOM
      1 C         142.2334  141.2635  162.2817 C.3     1  UNL1        0.1547
      2 C         142.3559  140.3488  163.4642 C.ar    1  UNL1        0.0007
      3 C         141.8078  138.9543  163.3937 C.ar    1  UNL1       -0.0025
      4 C         141.9304  138.0396  164.5762 C.ar    1  UNL1       -0.0003
      5 C         142.6011  138.5195  165.8292 C.ar    1  UNL1       -0.0000
      6 C         143.1492  139.9140  165.8997 C.ar    1  UNL1       -0.0003
      7 C         143.0266  140.8287  164.7171 C.ar    1  UNL1       -0.0025
      8 C         143.2703  141.2317  161.1982 C.2     1  UNL1        0.2457
      9 O         144.6148  140.6224  161.4646 O.2     1  UNL1       -0.2729
     10 N         142.9626  141.8092  159.8485 N.am    1  UNL1       -0.2680
     11 H         142.0801  142.2091  159.6737 H       1  UNL1        0.1563
     12 C         143.9996  141.7774  158.7650 C.ar    1  UNL1        0.1342
     13 C         143.9846  140.6782  157.7446 C.ar    1  UNL1        0.0345
     14 C         145.0215  140.6464  156.6612 C.ar    1  UNL1        0.0045
     15 C         146.0733  141.7140  156.5982 C.ar    1  UNL1        0.0223
     16 C         146.0883  142.8132  157.6187 C.ar    1  UNL1        0.1004
     17 N         145.0514  142.8449  158.7021 N.ar    1  UNL1       -0.2290
     18 C         147.1103  141.6822  155.5147 C.ar    1  UNL1        0.0411
     19 C         146.8491  141.4944  154.0496 C.ar    1  UNL1        0.1217
     20 N         148.1677  141.5288  153.3355 N.ar    1  UNL1       -0.1676
     21 N         149.2439  141.7378  154.3594 N.ar    1  UNL1       -0.2473
     22 C         150.7154  141.8349  154.0846 C.3     1  UNL1        0.1538
     23 C         148.5904  141.8326  155.7061 C.ar    1  UNL1        0.0967
     24 N         141.0739  142.2099  162.1826 N.3     1  UNL1       -0.2875
     25 H         141.1971  142.9046  162.9192 H       1  UNL1        0.1239
     26 C         139.6712  141.6930  162.3052 C.3     1  UNL1        0.0735
     27 C         137.6354  142.9641  163.3001 C.3     1  UNL1        0.0061
     28 C         138.8307  142.0774  163.4867 C.3     1  UNL1        0.0381
     29 C         139.1856  141.5751  164.8547 C.ar    1  UNL1       -0.0211
     30 C         139.9533  142.4513  165.7996 C.ar    1  UNL1       -0.0035
     31 C         140.3082  141.9490  167.1678 C.ar    1  UNL1        0.0100
     32 C         139.8955  140.5704  167.5909 C.ar    1  UNL1        0.0684
     33 C         139.1278  139.6941  166.6460 C.ar    1  UNL1        0.0100
     34 C         138.7729  140.1964  165.2780 C.ar    1  UNL1       -0.0035
     35 C         140.2504  140.0680  168.9591 C.1     1  UNL1        0.1004
     36 N         140.6052  139.5656  170.3272 N.1     1  UNL1       -0.1908
@<TRIPOS>BOND
     1    28    27    1
     2    28    26    1
     3    26    24    1
     4     1    24    1
     5     1     8    1
     6     8     9    2
     7     8    10   am
     8    10    12    1
     9    12    13   ar
    10    13    14   ar
    11    14    15   ar
    12    15    18    1
    13    18    19   ar
    14    19    20   ar
    15    20    21   ar
    16    21    22    1
    17    21    23   ar
    18    15    16   ar
    19    16    17   ar
    20     1     2    1
    21     2     3   ar
    22     3     4   ar
    23     4     5   ar
    24     5     6   ar
    25     6     7   ar
    26    28    29    1
    27    29    30   ar
    28    30    31   ar
    29    31    32   ar
    30    32    35    1
    31    35    36    3
    32    32    33   ar
    33    33    34   ar
    34    17    12   ar
    35     7     2   ar
    36    34    29   ar
    37    23    18   ar
    38    24    25    1
    39    10    11    1
@<TRIPOS>MOLECULE
*****
 36 39 0 0 0
SMALL
GASTEIGER

@<TRIPOS>ATOM
      1 C         140.7250  140.9566  162.3435 C.3     1  UNL1        0.1547
      2 C         142.0576  140.8677  163.0262 C.ar    1  UNL1        0.0007
      3 C         142.5873  142.0429  163.7933 C.ar    1  UNL1       -0.0025
      4 C         143.9199  141.9540  164.4760 C.ar    1  UNL1       -0.0003
      5 C         144.7230  140.6899  164.3916 C.ar    1  UNL1       -0.0000
      6 C         144.1934  139.5147  163.6246 C.ar    1  UNL1       -0.0003
      7 C         142.8606  139.6036  162.9418 C.ar    1  UNL1       -0.0025
      8 C         140.4471  142.0755  161.3838 C.2     1  UNL1        0.2457
      9 O         139.5092  143.1802  161.7711 O.2     1  UNL1       -0.2729
     10 N         141.1069  142.0896  160.0369 N.am    1  UNL1       -0.2680
     11 H         141.7225  141.3645  159.7827 H       1  UNL1        0.1563
     12 C         140.8290  143.2084  159.0771 C.ar    1  UNL1        0.1342
     13 C         139.7319  143.0719  158.0635 C.ar    1  UNL1        0.0345
     14 C         139.4540  144.1907  157.1038 C.ar    1  UNL1        0.0045
     15 C         140.2733  145.4461  157.1578 C.ar    1  UNL1        0.0223
     16 C         141.3704  145.5826  158.1715 C.ar    1  UNL1        0.1004
     17 N         141.6483  144.4637  159.1311 N.ar    1  UNL1       -0.2290
     18 C         139.9953  146.5649  156.1981 C.ar    1  UNL1        0.0411
     19 C         138.9755  147.6497  156.3801 C.ar    1  UNL1        0.1217
     20 N         139.0382  148.5506  155.1824 N.ar    1  UNL1       -0.1676
     21 N         140.0970  148.0226  154.2603 N.ar    1  UNL1       -0.2473
     22 C         140.4944  148.6174  152.9418 C.3     1  UNL1        0.1538
     23 C         140.6885  146.7954  154.8880 C.ar    1  UNL1        0.0967
     24 N         139.6702  139.9267  162.6205 N.3     1  UNL1       -0.2875
     25 H         139.0151  139.9586  161.8393 H       1  UNL1        0.1239
     26 C         138.8523  140.0095  163.8751 C.3     1  UNL1        0.0735
     27 C         138.8324  137.9665  165.4800 C.3     1  UNL1        0.0061
     28 C         139.3302  139.3369  165.1278 C.3     1  UNL1        0.0381
     29 C         140.3060  140.0347  166.0282 C.ar    1  UNL1       -0.0211
     30 C         140.0237  141.4294  166.5027 C.ar    1  UNL1       -0.0035
     31 C         140.9995  142.1272  167.4032 C.ar    1  UNL1        0.0100
     32 C         142.2576  141.4303  167.8292 C.ar    1  UNL1        0.0684
     33 C         142.5399  140.0356  167.3548 C.ar    1  UNL1        0.0100
     34 C         141.5641  139.3378  166.4543 C.ar    1  UNL1       -0.0035
     35 C         143.2335  142.1281  168.7297 C.1     1  UNL1        0.1004
     36 N         144.2093  142.8258  169.6302 N.1     1  UNL1       -0.1908
@<TRIPOS>BOND
     1    28    27    1
     2    28    26    1
     3    26    24    1
     4     1    24    1
     5     1     8    1
     6     8     9    2
     7     8    10   am
     8    10    12    1
     9    12    13   ar
    10    13    14   ar
    11    14    15   ar
    12    15    18    1
    13    18    19   ar
    14    19    20   ar
    15    20    21   ar
    16    21    22    1
    17    21    23   ar
    18    15    16   ar
    19    16    17   ar
    20     1     2    1
    21     2     3   ar
    22     3     4   ar
    23     4     5   ar
    24     5     6   ar
    25     6     7   ar
    26    28    29    1
    27    29    30   ar
    28    30    31   ar
    29    31    32   ar
    30    32    35    1
    31    35    36    3
    32    32    33   ar
    33    33    34   ar
    34    17    12   ar
    35     7     2   ar
    36    34    29   ar
    37    23    18   ar
    38    24    25    1
    39    10    11    1
@<TRIPOS>MOLECULE
*****
 36 39 0 0 0
SMALL
GASTEIGER

@<TRIPOS>ATOM
      1 C         141.3950  139.4307  163.2233 C.3     1  UNL1        0.1547
      2 C         140.3060  139.2595  164.2406 C.ar    1  UNL1        0.0007
      3 C         139.8264  137.8849  164.6018 C.ar    1  UNL1       -0.0025
      4 C         138.7375  137.7138  165.6190 C.ar    1  UNL1       -0.0003
      5 C         138.1281  138.9172  166.2752 C.ar    1  UNL1       -0.0000
      6 C         138.6077  140.2918  165.9140 C.ar    1  UNL1       -0.0003
      7 C         139.6967  140.4630  164.8967 C.ar    1  UNL1       -0.0025
      8 C         141.1706  140.3035  162.0241 C.2     1  UNL1        0.2457
      9 O         140.2916  139.8290  160.9051 O.2     1  UNL1       -0.2729
     10 N         141.8252  141.6507  161.9439 N.am    1  UNL1       -0.2680
     11 H         142.4022  141.9621  162.6784 H       1  UNL1        0.1563
     12 C         141.6009  142.5234  160.7447 C.ar    1  UNL1        0.1342
     13 C         140.5991  143.6381  160.8052 C.ar    1  UNL1        0.0345
     14 C         140.3748  144.5108  159.6061 C.ar    1  UNL1        0.0045
     15 C         141.1523  144.2688  158.3464 C.ar    1  UNL1        0.0223
     16 C         142.1541  143.1541  158.2858 C.ar    1  UNL1        0.1004
     17 N         142.3784  142.2814  159.4850 N.ar    1  UNL1       -0.2290
     18 C         140.9280  145.1415  157.1471 C.ar    1  UNL1        0.0411
     19 C         141.6467  145.0382  155.8346 C.ar    1  UNL1        0.1217
     20 N         141.1085  146.1036  154.9262 N.ar    1  UNL1       -0.1676
     21 N         140.0571  146.8654  155.6773 N.ar    1  UNL1       -0.2473
     22 C         139.2576  148.0193  155.1487 C.3     1  UNL1        0.1538
     23 C         139.9455  146.2708  157.0499 C.ar    1  UNL1        0.0967
     24 N         142.7083  138.7292  163.4052 N.3     1  UNL1       -0.2875
     25 H         142.5165  137.7285  163.3585 H       1  UNL1        0.1239
     26 C         143.5148  138.9579  164.6490 C.3     1  UNL1        0.0735
     27 C         144.3782  141.4016  164.4683 C.3     1  UNL1        0.0061
     28 C         143.6346  140.3390  165.2219 C.3     1  UNL1        0.0381
     29 C         143.0107  140.6576  166.5482 C.ar    1  UNL1       -0.0211
     30 C         143.0422  142.0621  167.0739 C.ar    1  UNL1       -0.0035
     31 C         142.4183  142.3806  168.4004 C.ar    1  UNL1        0.0100
     32 C         141.7630  141.2946  169.2010 C.ar    1  UNL1        0.0684
     33 C         141.7315  139.8901  168.6754 C.ar    1  UNL1        0.0100
     34 C         142.3554  139.5716  167.3490 C.ar    1  UNL1       -0.0035
     35 C         141.1391  141.6132  170.5275 C.1     1  UNL1        0.1004
     36 N         140.5152  141.9316  171.8539 N.1     1  UNL1       -0.1908
@<TRIPOS>BOND
     1    28    27    1
     2    28    26    1
     3    26    24    1
     4     1    24    1
     5     1     8    1
     6     8     9    2
     7     8    10   am
     8    10    12    1
     9    12    13   ar
    10    13    14   ar
    11    14    15   ar
    12    15    18    1
    13    18    19   ar
    14    19    20   ar
    15    20    21   ar
    16    21    22    1
    17    21    23   ar
    18    15    16   ar
    19    16    17   ar
    20     1     2    1
    21     2     3   ar
    22     3     4   ar
    23     4     5   ar
    24     5     6   ar
    25     6     7   ar
    26    28    29    1
    27    29    30   ar
    28    30    31   ar
    29    31    32   ar
    30    32    35    1
    31    35    36    3
    32    32    33   ar
    33    33    34   ar
    34    17    12   ar
    35     7     2   ar
    36    34    29   ar
    37    23    18   ar
    38    24    25    1
    39    10    11    1
@<TRIPOS>MOLECULE
*****
 36 39 0 0 0
SMALL
GASTEIGER

@<TRIPOS>ATOM
      1 C         142.5581  139.9082  161.6961 C.3     1  UNL1        0.1547
      2 C         142.6586  139.3689  163.0922 C.ar    1  UNL1        0.0007
      3 C         143.6700  139.9355  164.0441 C.ar    1  UNL1       -0.0025
      4 C         143.7705  139.3962  165.4401 C.ar    1  UNL1       -0.0003
      5 C         142.8596  138.2904  165.8844 C.ar    1  UNL1       -0.0000
      6 C         141.8481  137.7239  164.9326 C.ar    1  UNL1       -0.0003
      7 C         141.7477  138.2632  163.5364 C.ar    1  UNL1       -0.0025
      8 C         142.5808  138.9697  160.5261 C.2     1  UNL1        0.2457
      9 O         143.3275  137.6722  160.6199 O.2     1  UNL1       -0.2729
     10 N         141.8567  139.3288  159.2625 N.am    1  UNL1       -0.2680
     11 H         141.3666  140.1804  159.2010 H       1  UNL1        0.1563
     12 C         141.8794  138.3903  158.0925 C.ar    1  UNL1        0.1342
     13 C         140.5921  137.9267  157.4778 C.ar    1  UNL1        0.0345
     14 C         140.6148  136.9883  156.3079 C.ar    1  UNL1        0.0045
     15 C         141.9248  136.5134  155.7527 C.ar    1  UNL1        0.0223
     16 C         143.2121  136.9769  156.3674 C.ar    1  UNL1        0.1004
     17 N         143.1894  137.9154  157.5373 N.ar    1  UNL1       -0.2290
     18 C         141.9475  135.5749  154.5827 C.ar    1  UNL1        0.0411
     19 C         141.6471  135.9348  153.1578 C.ar    1  UNL1        0.1217
     20 N         141.7885  134.6942  152.3267 N.ar    1  UNL1       -0.1676
     21 N         142.1762  133.5675  153.2379 N.ar    1  UNL1       -0.2473
     22 C         142.4224  132.1460  152.8270 C.3     1  UNL1        0.1538
     23 C         142.2744  134.1118  154.6322 C.ar    1  UNL1        0.0967
     24 N         142.4349  141.3859  161.4700 N.3     1  UNL1       -0.2875
     25 H         143.2224  141.8236  161.9482 H       1  UNL1        0.1239
     26 C         141.2002  142.1124  161.9146 C.3     1  UNL1        0.0735
     27 C         141.5883  143.6532  163.9701 C.3     1  UNL1        0.0061
     28 C         140.9911  142.4157  163.3686 C.3     1  UNL1        0.0381
     29 C         140.1848  141.4814  164.2213 C.ar    1  UNL1       -0.0211
     30 C         139.0508  140.7062  163.6188 C.ar    1  UNL1       -0.0035
     31 C         138.2445  139.7719  164.4716 C.ar    1  UNL1        0.0100
     32 C         138.5722  139.6129  165.9266 C.ar    1  UNL1        0.0684
     33 C         139.7063  140.3881  166.5290 C.ar    1  UNL1        0.0100
     34 C         140.5126  141.3224  165.6764 C.ar    1  UNL1       -0.0035
     35 C         137.7659  138.6786  166.7793 C.1     1  UNL1        0.1004
     36 N         136.9597  137.7443  167.6320 N.1     1  UNL1       -0.1908
@<TRIPOS>BOND
     1    28    27    1
     2    28    26    1
     3    26    24    1
     4     1    24    1
     5     1     8    1
     6     8     9    2
     7     8    10   am
     8    10    12    1
     9    12    13   ar
    10    13    14   ar
    11    14    15   ar
    12    15    18    1
    13    18    19   ar
    14    19    20   ar
    15    20    21   ar
    16    21    22    1
    17    21    23   ar
    18    15    16   ar
    19    16    17   ar
    20     1     2    1
    21     2     3   ar
    22     3     4   ar
    23     4     5   ar
    24     5     6   ar
    25     6     7   ar
    26    28    29    1
    27    29    30   ar
    28    30    31   ar
    29    31    32   ar
    30    32    35    1
    31    35    36    3
    32    32    33   ar
    33    33    34   ar
    34    17    12   ar
    35     7     2   ar
    36    34    29   ar
    37    23    18   ar
    38    24    25    1
    39    10    11    1
@<TRIPOS>MOLECULE
*****
 36 39 0 0 0
SMALL
GASTEIGER

@<TRIPOS>ATOM
      1 C         143.7938  140.2523  162.0563 C.3     1  UNL1        0.1547
      2 C         143.6779  139.5857  163.3950 C.ar    1  UNL1        0.0007
      3 C         144.8700  139.5134  164.3025 C.ar    1  UNL1       -0.0025
      4 C         144.7541  138.8468  165.6412 C.ar    1  UNL1       -0.0003
      5 C         143.4460  138.2525  166.0724 C.ar    1  UNL1       -0.0000
      6 C         142.2539  138.3247  165.1649 C.ar    1  UNL1       -0.0003
      7 C         142.3699  138.9914  163.8261 C.ar    1  UNL1       -0.0025
      8 C         143.6252  139.4485  160.8010 C.2     1  UNL1        0.2457
      9 O         144.2477  138.0881  160.6924 O.2     1  UNL1       -0.2729
     10 N         142.8342  140.0051  159.6545 N.am    1  UNL1       -0.2680
     11 H         142.4257  140.8979  159.7259 H       1  UNL1        0.1563
     12 C         142.6657  139.2012  158.3993 C.ar    1  UNL1        0.1342
     13 C         141.4674  138.3147  158.2316 C.ar    1  UNL1        0.0345
     14 C         141.2989  137.5109  156.9764 C.ar    1  UNL1        0.0045
     15 C         142.3287  137.5937  155.8889 C.ar    1  UNL1        0.0223
     16 C         143.5270  138.4803  156.0566 C.ar    1  UNL1        0.1004
     17 N         143.6955  139.2840  157.3118 N.ar    1  UNL1       -0.2290
     18 C         142.1602  136.7899  154.6337 C.ar    1  UNL1        0.0411
     19 C         141.9678  137.3421  153.2523 C.ar    1  UNL1        0.1217
     20 N         141.8432  136.1863  152.3043 N.ar    1  UNL1       -0.1676
     21 N         141.9585  134.9198  153.0999 N.ar    1  UNL1       -0.2473
     22 C         141.8900  133.5251  152.5519 C.3     1  UNL1        0.1538
     23 C         142.1545  135.2929  154.5394 C.ar    1  UNL1        0.0967
     24 N         144.0782  141.7227  161.9727 N.3     1  UNL1       -0.2875
     25 H         144.9148  141.8930  162.5308 H       1  UNL1        0.1239
     26 C         143.0467  142.7131  162.4256 C.3     1  UNL1        0.0735
     27 C         143.8491  144.6256  163.9902 C.3     1  UNL1        0.0061
     28 C         143.1389  143.3190  163.7947 C.3     1  UNL1        0.0381
     29 C         142.5210  142.6183  164.9681 C.ar    1  UNL1       -0.0211
     30 C         141.0805  142.2026  164.9201 C.ar    1  UNL1       -0.0035
     31 C         140.4626  141.5019  166.0937 C.ar    1  UNL1        0.0100
     32 C         141.2851  141.2169  167.3152 C.ar    1  UNL1        0.0684
     33 C         142.7255  141.6326  167.3633 C.ar    1  UNL1        0.0100
     34 C         143.3435  142.3333  166.1898 C.ar    1  UNL1       -0.0035
     35 C         140.6671  140.5161  168.4888 C.1     1  UNL1        0.1004
     36 N         140.0492  139.8155  169.6623 N.1     1  UNL1       -0.1908
@<TRIPOS>BOND
     1    28    27    1
     2    28    26    1
     3    26    24    1
     4     1    24    1
     5     1     8    1
     6     8     9    2
     7     8    10   am
     8    10    12    1
     9    12    13   ar
    10    13    14   ar
    11    14    15   ar
    12    15    18    1
    13    18    19   ar
    14    19    20   ar
    15    20    21   ar
    16    21    22    1
    17    21    23   ar
    18    15    16   ar
    19    16    17   ar
    20     1     2    1
    21     2     3   ar
    22     3     4   ar
    23     4     5   ar
    24     5     6   ar
    25     6     7   ar
    26    28    29    1
    27    29    30   ar
    28    30    31   ar
    29    31    32   ar
    30    32    35    1
    31    35    36    3
    32    32    33   ar
    33    33    34   ar
    34    17    12   ar
    35     7     2   ar
    36    34    29   ar
    37    23    18   ar
    38    24    25    1
    39    10    11    1
@<TRIPOS>MOLECULE
*****
 36 39 0 0 0
SMALL
GASTEIGER

@<TRIPOS>ATOM
      1 C         139.5412  140.4228  161.5888 C.3     1  UNL1        0.1547
      2 C         139.3305  141.3206  162.7718 C.ar    1  UNL1        0.0007
      3 C         140.5086  141.9460  163.4579 C.ar    1  UNL1       -0.0025
      4 C         140.2979  142.8438  164.6409 C.ar    1  UNL1       -0.0003
      5 C         138.9090  143.1162  165.1378 C.ar    1  UNL1       -0.0000
      6 C         137.7309  142.4908  164.4516 C.ar    1  UNL1       -0.0003
      7 C         137.9416  141.5929  163.2686 C.ar    1  UNL1       -0.0025
      8 C         140.5360  140.7976  160.5305 C.2     1  UNL1        0.2457
      9 O         140.1763  141.8167  159.4903 O.2     1  UNL1       -0.2729
     10 N         141.8905  140.1533  160.5124 N.am    1  UNL1       -0.2680
     11 H         142.1265  139.4845  161.1952 H       1  UNL1        0.1563
     12 C         142.8853  140.5282  159.4541 C.ar    1  UNL1        0.1342
     13 C         143.7262  141.7595  159.6177 C.ar    1  UNL1        0.0345
     14 C         144.7209  142.1343  158.5594 C.ar    1  UNL1        0.0045
     15 C         144.8748  141.2778  157.3376 C.ar    1  UNL1        0.0223
     16 C         144.0339  140.0465  157.1741 C.ar    1  UNL1        0.1004
     17 N         143.0392  139.6717  158.2324 N.ar    1  UNL1       -0.2290
     18 C         145.8696  141.6526  156.2793 C.ar    1  UNL1        0.0411
     19 C         147.0810  142.5156  156.4741 C.ar    1  UNL1        0.1217
     20 N         147.7878  142.6266  155.1557 N.ar    1  UNL1       -0.1676
     21 N         147.0132  141.8323  154.1462 N.ar    1  UNL1       -0.2473
     22 C         147.3627  141.6687  152.6966 C.3     1  UNL1        0.1538
     23 C         145.8277  141.2304  154.8406 C.ar    1  UNL1        0.0967
     24 N         138.7571  139.1501  161.4640 N.3     1  UNL1       -0.2875
     25 H         137.8003  139.4154  161.2306 H       1  UNL1        0.1239
     26 C         138.6732  138.2040  162.6249 C.3     1  UNL1        0.0735
     27 C         141.0758  137.3625  163.1439 C.3     1  UNL1        0.0061
     28 C         139.8283  138.0761  163.5733 C.3     1  UNL1        0.0381
     29 C         139.7359  138.6619  164.9510 C.ar    1  UNL1       -0.0211
     30 C         138.4123  138.7193  165.6545 C.ar    1  UNL1       -0.0035
     31 C         138.3200  139.3051  167.0323 C.ar    1  UNL1        0.0100
     32 C         139.5512  139.8335  167.7066 C.ar    1  UNL1        0.0684
     33 C         140.8748  139.7762  167.0032 C.ar    1  UNL1        0.0100
     34 C         140.9672  139.1904  165.6255 C.ar    1  UNL1       -0.0035
     35 C         139.4589  140.4194  169.0845 C.1     1  UNL1        0.1004
     36 N         139.3666  141.0051  170.4623 N.1     1  UNL1       -0.1908
@<TRIPOS>BOND
     1    28    27    1
     2    28    26    1
     3    26    24    1
     4     1    24    1
     5     1     8    1
     6     8     9    2
     7     8    10   am
     8    10    12    1
     9    12    13   ar
    10    13    14   ar
    11    14    15   ar
    12    15    18    1
    13    18    19   ar
    14    19    20   ar
    15    20    21   ar
    16    21    22    1
    17    21    23   ar
    18    15    16   ar
    19    16    17   ar
    20     1     2    1
    21     2     3   ar
    22     3     4   ar
    23     4     5   ar
    24     5     6   ar
    25     6     7   ar
    26    28    29    1
    27    29    30   ar
    28    30    31   ar
    29    31    32   ar
    30    32    35    1
    31    35    36    3
    32    32    33   ar
    33    33    34   ar
    34    17    12   ar
    35     7     2   ar
    36    34    29   ar
    37    23    18   ar
    38    24    25    1
    39    10    11    1
