@<TRIPOS>MOLECULE
*****
 35 38 0 0 0
SMALL
GASTEIGER

@<TRIPOS>ATOM
      1 C         140.7907  140.5498  164.5997 C.2     1  UNL1       -0.0040
      2 C         139.3414  140.1707  164.5246 C.2     1  UNL1       -0.0221
      3 C         143.4140  141.3333  169.9386 C.3     1  UNL1        0.0310
      4 C         142.7582  141.1374  168.6039 C.ar    1  UNL1       -0.0218
      5 C         142.1588  142.3087  167.8836 C.ar    1  UNL1       -0.0043
      6 C         141.5030  142.1128  166.5489 C.ar    1  UNL1       -0.0003
      7 C         141.4465  140.7457  165.9344 C.ar    1  UNL1       -0.0003
      8 C         142.0458  139.5744  166.6547 C.ar    1  UNL1       -0.0003
      9 C         142.7017  139.7703  167.9894 C.ar    1  UNL1       -0.0043
     10 C         138.6856  139.9748  163.1898 C.ar    1  UNL1       -0.0040
     11 C         138.3142  141.1642  162.3549 C.ar    1  UNL1       -0.0003
     12 C         137.6584  140.9684  161.0201 C.ar    1  UNL1       -0.0000
     13 C         137.3739  139.5830  160.5203 C.ar    1  UNL1       -0.0000
     14 C         137.7452  138.3934  161.3553 C.ar    1  UNL1       -0.0000
     15 C         138.4011  138.5893  162.6901 C.ar    1  UNL1       -0.0003
     16 C         141.5842  140.7331  163.3400 C.ar    1  UNL1       -0.0002
     17 C         142.1733  139.5416  162.6447 C.ar    1  UNL1        0.0013
     18 C         142.9668  139.7249  161.3850 C.ar    1  UNL1        0.0145
     19 C         143.1712  141.0995  160.8207 C.ar    1  UNL1        0.0479
     20 C         142.5821  142.2910  161.5160 C.ar    1  UNL1        0.0145
     21 C         141.7886  142.1077  162.7757 C.ar    1  UNL1        0.0013
     22 N         143.9648  141.2828  159.5610 N.pl3   1  UNL1       -0.3046
     23 C         143.8639  140.2720  158.4573 C.3     1  UNL1        0.1081
     24 C         144.6574  140.4552  157.1977 C.3     1  UNL1        0.0938
     25 N         145.5518  141.6493  157.0417 N.3     1  UNL1       -0.2711
     26 C         145.6527  142.6600  158.1454 C.3     1  UNL1        0.0938
     27 C         144.8592  142.4768  159.4050 C.3     1  UNL1        0.1081
     28 C         146.3454  141.8325  155.7820 C.3     1  UNL1        0.0577
     29 C         147.7362  142.3904  155.8462 C.3     1  UNL1        0.0173
     30 C         145.7480  141.4577  154.4581 C.3     1  UNL1        0.0173
     31 C         138.5478  139.9874  165.7842 C.3     1  UNL1        0.0289
     32 C         138.4104  138.6231  166.3923 C.3     1  UNL1        0.0364
     33 C         137.3358  138.3579  167.4047 C.3     1  UNL1        0.1375
     34 O         136.9332  136.9476  167.7192 O.3     1  UNL1       -0.3820
     35 H         136.5222  136.5467  166.9374 H       1  UNL1        0.2104
@<TRIPOS>BOND
     1     3     4    1
     2     4     5   ar
     3     5     6   ar
     4     6     7   ar
     5     7     1    1
     6     1     2    2
     7     2    31    1
     8    31    32    1
     9    32    33    1
    10    33    34    1
    11     2    10    1
    12    10    11   ar
    13    11    12   ar
    14    12    13   ar
    15    13    14   ar
    16    14    15   ar
    17     1    16    1
    18    16    17   ar
    19    17    18   ar
    20    18    19   ar
    21    19    22    1
    22    22    23    1
    23    23    24    1
    24    24    25    1
    25    25    28    1
    26    28    29    1
    27    28    30    1
    28    25    26    1
    29    26    27    1
    30    19    20   ar
    31    20    21   ar
    32     7     8   ar
    33     8     9   ar
    34     9     4   ar
    35    15    10   ar
    36    21    16   ar
    37    27    22    1
    38    34    35    1
@<TRIPOS>MOLECULE
*****
 35 38 0 0 0
SMALL
GASTEIGER

@<TRIPOS>ATOM
      1 C         141.0065  140.2354  165.2750 C.2     1  UNL1       -0.0040
      2 C         142.3870  140.1561  165.8563 C.2     1  UNL1       -0.0221
      3 C         136.4095  137.6022  168.0918 C.3     1  UNL1        0.0310
      4 C         137.5588  138.2605  167.3876 C.ar    1  UNL1       -0.0218
      5 C         138.0954  137.6726  166.1163 C.ar    1  UNL1       -0.0043
      6 C         139.2447  138.3309  165.4121 C.ar    1  UNL1       -0.0003
      7 C         139.8573  139.5771  165.9792 C.ar    1  UNL1       -0.0003
      8 C         139.3206  140.1650  167.2505 C.ar    1  UNL1       -0.0003
      9 C         138.1714  139.5067  167.9547 C.ar    1  UNL1       -0.0043
     10 C         143.5362  140.8144  165.1521 C.ar    1  UNL1       -0.0040
     11 C         143.7720  142.2867  165.3156 C.ar    1  UNL1       -0.0003
     12 C         144.9212  142.9450  164.6114 C.ar    1  UNL1       -0.0000
     13 C         145.8347  142.1310  163.7437 C.ar    1  UNL1       -0.0000
     14 C         145.5990  140.6586  163.5802 C.ar    1  UNL1       -0.0000
     15 C         144.4498  140.0003  164.2844 C.ar    1  UNL1       -0.0003
     16 C         140.7753  140.9729  163.9895 C.ar    1  UNL1       -0.0002
     17 C         140.2618  142.3821  164.0153 C.ar    1  UNL1        0.0013
     18 C         140.0306  143.1197  162.7298 C.ar    1  UNL1        0.0145
     19 C         140.3128  142.4481  161.4185 C.ar    1  UNL1        0.0479
     20 C         140.8262  141.0390  161.3928 C.ar    1  UNL1        0.0145
     21 C         141.0575  140.3014  162.6783 C.ar    1  UNL1        0.0013
     22 N         140.0815  143.1858  160.1330 N.pl3   1  UNL1       -0.3046
     23 C         139.3412  142.5218  159.0101 C.3     1  UNL1        0.1081
     24 C         139.1099  143.2595  157.7246 C.3     1  UNL1        0.0938
     25 N         139.6190  144.6610  157.5622 N.3     1  UNL1       -0.2711
     26 C         140.3594  145.3250  158.6851 C.3     1  UNL1        0.0938
     27 C         140.5906  144.5873  159.9705 C.3     1  UNL1        0.1081
     28 C         139.3878  145.3987  156.2766 C.3     1  UNL1        0.0577
     29 C         140.2547  146.5687  155.9169 C.3     1  UNL1        0.0173
     30 C         138.2896  144.9662  155.3509 C.3     1  UNL1        0.0173
     31 C         142.6183  139.4185  167.1418 C.3     1  UNL1        0.0289
     32 C         142.7525  140.1778  168.4284 C.3     1  UNL1        0.0364
     33 C         142.1971  139.6051  169.6987 C.3     1  UNL1        0.1375
     34 O         142.7522  140.0392  171.0228 O.3     1  UNL1       -0.3820
     35 H         143.6727  139.7432  171.1002 H       1  UNL1        0.2104
@<TRIPOS>BOND
     1     3     4    1
     2     4     5   ar
     3     5     6   ar
     4     6     7   ar
     5     7     1    1
     6     1     2    2
     7     2    31    1
     8    31    32    1
     9    32    33    1
    10    33    34    1
    11     2    10    1
    12    10    11   ar
    13    11    12   ar
    14    12    13   ar
    15    13    14   ar
    16    14    15   ar
    17     1    16    1
    18    16    17   ar
    19    17    18   ar
    20    18    19   ar
    21    19    22    1
    22    22    23    1
    23    23    24    1
    24    24    25    1
    25    25    28    1
    26    28    29    1
    27    28    30    1
    28    25    26    1
    29    26    27    1
    30    19    20   ar
    31    20    21   ar
    32     7     8   ar
    33     8     9   ar
    34     9     4   ar
    35    15    10   ar
    36    21    16   ar
    37    27    22    1
    38    34    35    1
@<TRIPOS>MOLECULE
*****
 35 38 0 0 0
SMALL
GASTEIGER

@<TRIPOS>ATOM
      1 C         141.9992  140.8034  164.8004 C.2     1  UNL1       -0.0040
      2 C         142.4316  139.3736  164.6646 C.2     1  UNL1       -0.0221
      3 C         141.3883  143.2487  170.2453 C.3     1  UNL1        0.0310
      4 C         141.5410  142.6374  168.8841 C.ar    1  UNL1       -0.0218
      5 C         140.3347  142.1341  168.1484 C.ar    1  UNL1       -0.0043
      6 C         140.4874  141.5228  166.7871 C.ar    1  UNL1       -0.0003
      7 C         141.8465  141.4148  166.1616 C.ar    1  UNL1       -0.0003
      8 C         143.0528  141.9181  166.8974 C.ar    1  UNL1       -0.0003
      9 C         142.9001  142.5294  168.2586 C.ar    1  UNL1       -0.0043
     10 C         142.5843  138.7622  163.3034 C.ar    1  UNL1       -0.0040
     11 C         143.9345  138.7090  162.6523 C.ar    1  UNL1       -0.0003
     12 C         144.0873  138.0977  161.2911 C.ar    1  UNL1       -0.0000
     13 C         142.8897  137.5396  160.5809 C.ar    1  UNL1       -0.0000
     14 C         141.5394  137.5928  161.2320 C.ar    1  UNL1       -0.0000
     15 C         141.3867  138.2041  162.5932 C.ar    1  UNL1       -0.0003
     16 C         141.7195  141.6220  163.5750 C.ar    1  UNL1       -0.0002
     17 C         140.3223  141.7135  163.0369 C.ar    1  UNL1        0.0013
     18 C         140.0426  142.5320  161.8115 C.ar    1  UNL1        0.0145
     19 C         141.1602  143.2591  161.1240 C.ar    1  UNL1        0.0479
     20 C         142.5573  143.1676  161.6620 C.ar    1  UNL1        0.0145
     21 C         142.8371  142.3490  162.8875 C.ar    1  UNL1        0.0013
     22 N         140.8805  144.0777  159.8985 N.pl3   1  UNL1       -0.3046
     23 C         140.3507  145.4744  160.0344 C.3     1  UNL1        0.1081
     24 C         140.0710  146.2929  158.8089 C.3     1  UNL1        0.0938
     25 N         140.3211  145.7146  157.4476 N.3     1  UNL1       -0.2711
     26 C         140.8508  144.3179  157.3118 C.3     1  UNL1        0.0938
     27 C         141.1305  143.4994  158.5372 C.3     1  UNL1        0.1081
     28 C         140.0414  146.5332  156.2221 C.3     1  UNL1        0.0577
     29 C         139.0198  147.6304  156.2702 C.3     1  UNL1        0.0173
     30 C         140.7833  146.2545  154.9486 C.3     1  UNL1        0.0173
     31 C         142.7112  138.5549  165.8901 C.3     1  UNL1        0.0289
     32 C         144.1256  138.2236  166.2640 C.3     1  UNL1        0.0364
     33 C         144.4001  137.2486  167.3705 C.3     1  UNL1        0.1375
     34 O         145.6886  136.4810  167.3912 O.3     1  UNL1       -0.3820
     35 H         145.7177  135.8776  166.6322 H       1  UNL1        0.2104
@<TRIPOS>BOND
     1     3     4    1
     2     4     5   ar
     3     5     6   ar
     4     6     7   ar
     5     7     1    1
     6     1     2    2
     7     2    31    1
     8    31    32    1
     9    32    33    1
    10    33    34    1
    11     2    10    1
    12    10    11   ar
    13    11    12   ar
    14    12    13   ar
    15    13    14   ar
    16    14    15   ar
    17     1    16    1
    18    16    17   ar
    19    17    18   ar
    20    18    19   ar
    21    19    22    1
    22    22    23    1
    23    23    24    1
    24    24    25    1
    25    25    28    1
    26    28    29    1
    27    28    30    1
    28    25    26    1
    29    26    27    1
    30    19    20   ar
    31    20    21   ar
    32     7     8   ar
    33     8     9   ar
    34     9     4   ar
    35    15    10   ar
    36    21    16   ar
    37    27    22    1
    38    34    35    1
@<TRIPOS>MOLECULE
*****
 35 38 0 0 0
SMALL
GASTEIGER

@<TRIPOS>ATOM
      1 C         140.5537  140.9857  164.2072 C.2     1  UNL1       -0.0040
      2 C         141.7043  141.6248  164.9265 C.2     1  UNL1       -0.0221
      3 C         137.2800  136.7641  166.9389 C.3     1  UNL1        0.0310
      4 C         138.0984  137.8195  166.2560 C.ar    1  UNL1       -0.0218
      5 C         139.0545  137.4381  165.1649 C.ar    1  UNL1       -0.0043
      6 C         139.8729  138.4935  164.4820 C.ar    1  UNL1       -0.0003
      7 C         139.7353  139.9303  164.8901 C.ar    1  UNL1       -0.0003
      8 C         138.7792  140.3117  165.9812 C.ar    1  UNL1       -0.0003
      9 C         137.9608  139.2563  166.6641 C.ar    1  UNL1       -0.0043
     10 C         142.5227  142.6802  164.2436 C.ar    1  UNL1       -0.0040
     11 C         142.1008  144.1179  164.3124 C.ar    1  UNL1       -0.0003
     12 C         142.9192  145.1733  163.6295 C.ar    1  UNL1       -0.0000
     13 C         144.1596  144.7909  162.8778 C.ar    1  UNL1       -0.0000
     14 C         144.5816  143.3531  162.8089 C.ar    1  UNL1       -0.0000
     15 C         143.7632  142.2977  163.4918 C.ar    1  UNL1       -0.0003
     16 C         140.2214  141.4019  162.8050 C.ar    1  UNL1       -0.0002
     17 C         140.9397  140.7757  161.6465 C.ar    1  UNL1        0.0013
     18 C         140.6075  141.1920  160.2443 C.ar    1  UNL1        0.0145
     19 C         139.5569  142.2345  160.0005 C.ar    1  UNL1        0.0479
     20 C         138.8386  142.8607  161.1588 C.ar    1  UNL1        0.0145
     21 C         139.1708  142.4445  162.5611 C.ar    1  UNL1        0.0013
     22 N         139.2247  142.6508  158.5981 N.pl3   1  UNL1       -0.3046
     23 C         138.0464  142.0446  157.8951 C.3     1  UNL1        0.1081
     24 C         137.7143  142.4609  156.4928 C.3     1  UNL1        0.0938
     25 N         138.5603  143.4833  155.7937 N.3     1  UNL1       -0.2711
     26 C         139.7385  144.0895  156.4967 C.3     1  UNL1        0.0938
     27 C         140.0707  143.6732  157.8989 C.3     1  UNL1        0.1081
     28 C         138.2280  143.8996  154.3913 C.3     1  UNL1        0.0577
     29 C         136.8331  144.3305  154.0475 C.3     1  UNL1        0.0173
     30 C         139.2908  143.8849  153.3329 C.3     1  UNL1        0.0173
     31 C         142.0367  141.2085  166.3288 C.3     1  UNL1        0.0289
     32 C         141.9197  142.1959  167.4519 C.3     1  UNL1        0.0364
     33 C         142.6594  141.9625  168.7358 C.3     1  UNL1        0.1375
     34 O         143.9176  142.7259  169.0259 O.3     1  UNL1       -0.3820
     35 H         144.6057  142.4677  168.3929 H       1  UNL1        0.2104
@<TRIPOS>BOND
     1     3     4    1
     2     4     5   ar
     3     5     6   ar
     4     6     7   ar
     5     7     1    1
     6     1     2    2
     7     2    31    1
     8    31    32    1
     9    32    33    1
    10    33    34    1
    11     2    10    1
    12    10    11   ar
    13    11    12   ar
    14    12    13   ar
    15    13    14   ar
    16    14    15   ar
    17     1    16    1
    18    16    17   ar
    19    17    18   ar
    20    18    19   ar
    21    19    22    1
    22    22    23    1
    23    23    24    1
    24    24    25    1
    25    25    28    1
    26    28    29    1
    27    28    30    1
    28    25    26    1
    29    26    27    1
    30    19    20   ar
    31    20    21   ar
    32     7     8   ar
    33     8     9   ar
    34     9     4   ar
    35    15    10   ar
    36    21    16   ar
    37    27    22    1
    38    34    35    1
@<TRIPOS>MOLECULE
*****
 35 38 0 0 0
SMALL
GASTEIGER

@<TRIPOS>ATOM
      1 C         140.3514  141.3249  159.1841 C.2     1  UNL1       -0.0040
      2 C         139.8990  141.3516  160.6139 C.2     1  UNL1       -0.0221
      3 C         140.4870  146.3992  155.9851 C.3     1  UNL1        0.0310
      4 C         140.4531  145.1306  156.7849 C.ar    1  UNL1       -0.0218
      5 C         141.5975  144.7842  157.6906 C.ar    1  UNL1       -0.0043
      6 C         141.5636  143.5157  158.4903 C.ar    1  UNL1       -0.0003
      7 C         140.3853  142.5935  158.3843 C.ar    1  UNL1       -0.0003
      8 C         139.2410  142.9399  157.4786 C.ar    1  UNL1       -0.0003
      9 C         139.2749  144.2085  156.6789 C.ar    1  UNL1       -0.0043
     10 C         139.8651  140.0830  161.4137 C.ar    1  UNL1       -0.0040
     11 C         138.6636  139.1875  161.3489 C.ar    1  UNL1       -0.0003
     12 C         138.6297  137.9189  162.1486 C.ar    1  UNL1       -0.0000
     13 C         139.7973  137.5459  163.0132 C.ar    1  UNL1       -0.0000
     14 C         140.9989  138.4415  163.0780 C.ar    1  UNL1       -0.0000
     15 C         141.0328  139.7101  162.2783 C.ar    1  UNL1       -0.0003
     16 C         140.7700  140.0297  158.5540 C.ar    1  UNL1       -0.0002
     17 C         139.7536  139.1674  157.8659 C.ar    1  UNL1        0.0013
     18 C         140.1721  137.8721  157.2358 C.ar    1  UNL1        0.0145
     19 C         141.6071  137.4391  157.2937 C.ar    1  UNL1        0.0479
     20 C         142.6235  138.3013  157.9818 C.ar    1  UNL1        0.0145
     21 C         142.2050  139.5967  158.6119 C.ar    1  UNL1        0.0013
     22 N         142.0257  136.1438  156.6636 N.pl3   1  UNL1       -0.3046
     23 C         143.2208  135.4056  157.1894 C.3     1  UNL1        0.1081
     24 C         143.6393  134.1103  156.5593 C.3     1  UNL1        0.0938
     25 N         142.8626  133.5532  155.4033 N.3     1  UNL1       -0.2711
     26 C         141.6674  134.2914  154.8774 C.3     1  UNL1        0.0938
     27 C         141.2489  135.5867  155.5076 C.3     1  UNL1        0.1081
     28 C         143.2811  132.2579  154.7731 C.3     1  UNL1        0.0577
     29 C         142.7094  131.8493  153.4479 C.3     1  UNL1        0.0173
     30 C         144.2714  131.3712  155.4682 C.3     1  UNL1        0.0173
     31 C         139.4804  142.6469  161.2441 C.3     1  UNL1        0.0289
     32 C         138.0564  142.8478  161.6706 C.3     1  UNL1        0.0364
     33 C         137.6108  142.4005  163.0313 C.3     1  UNL1        0.1375
     34 O         136.5937  141.3063  163.1653 O.3     1  UNL1       -0.3820
     35 H         135.7443  141.6088  162.8076 H       1  UNL1        0.2104
@<TRIPOS>BOND
     1     3     4    1
     2     4     5   ar
     3     5     6   ar
     4     6     7   ar
     5     7     1    1
     6     1     2    2
     7     2    31    1
     8    31    32    1
     9    32    33    1
    10    33    34    1
    11     2    10    1
    12    10    11   ar
    13    11    12   ar
    14    12    13   ar
    15    13    14   ar
    16    14    15   ar
    17     1    16    1
    18    16    17   ar
    19    17    18   ar
    20    18    19   ar
    21    19    22    1
    22    22    23    1
    23    23    24    1
    24    24    25    1
    25    25    28    1
    26    28    29    1
    27    28    30    1
    28    25    26    1
    29    26    27    1
    30    19    20   ar
    31    20    21   ar
    32     7     8   ar
    33     8     9   ar
    34     9     4   ar
    35    15    10   ar
    36    21    16   ar
    37    27    22    1
    38    34    35    1
@<TRIPOS>MOLECULE
*****
 35 38 0 0 0
SMALL
GASTEIGER

@<TRIPOS>ATOM
      1 C         140.5699  141.5651  162.0555 C.2     1  UNL1       -0.0040
      2 C         140.7058  143.0353  161.7908 C.2     1  UNL1       -0.0221
      3 C         139.1465  139.6254  167.5520 C.3     1  UNL1        0.0310
      4 C         139.5024  140.1103  166.1779 C.ar    1  UNL1       -0.0218
      5 C         140.9283  140.4327  165.8422 C.ar    1  UNL1       -0.0043
      6 C         141.2841  140.9176  164.4680 C.ar    1  UNL1       -0.0003
      7 C         140.2140  141.0802  163.4296 C.ar    1  UNL1       -0.0003
      8 C         138.7881  140.7578  163.7653 C.ar    1  UNL1       -0.0003
      9 C         138.4323  140.2729  165.1394 C.ar    1  UNL1       -0.0043
     10 C         141.0617  143.5202  160.4167 C.ar    1  UNL1       -0.0040
     11 C         142.4873  143.4776  159.9521 C.ar    1  UNL1       -0.0003
     12 C         142.8431  143.9626  158.5780 C.ar    1  UNL1       -0.0000
     13 C         141.7733  144.4900  157.6684 C.ar    1  UNL1       -0.0000
     14 C         140.3477  144.5326  158.1330 C.ar    1  UNL1       -0.0000
     15 C         139.9918  144.0477  159.5071 C.ar    1  UNL1       -0.0003
     16 C         140.7897  140.5799  160.9460 C.ar    1  UNL1       -0.0002
     17 C         139.6619  140.2265  160.0222 C.ar    1  UNL1        0.0013
     18 C         139.8818  139.2413  158.9128 C.ar    1  UNL1        0.0145
     19 C         141.2294  138.6094  158.7270 C.ar    1  UNL1        0.0479
     20 C         142.3572  138.9626  159.6508 C.ar    1  UNL1        0.0145
     21 C         142.1374  139.9479  160.7603 C.ar    1  UNL1        0.0013
     22 N         141.4493  137.6241  157.6175 N.pl3   1  UNL1       -0.3046
     23 C         140.3564  137.3549  156.6260 C.3     1  UNL1        0.1081
     24 C         140.5763  136.3697  155.5166 C.3     1  UNL1        0.0938
     25 N         141.8890  135.6536  155.3986 N.3     1  UNL1       -0.2711
     26 C         142.9819  135.9228  156.3901 C.3     1  UNL1        0.0938
     27 C         142.7620  136.9080  157.4996 C.3     1  UNL1        0.1081
     28 C         142.1089  134.6683  154.2891 C.3     1  UNL1        0.0577
     29 C         141.7439  135.0316  152.8802 C.3     1  UNL1        0.0173
     30 C         142.6936  133.3199  154.5885 C.3     1  UNL1        0.0173
     31 C         140.4860  144.0206  162.9003 C.3     1  UNL1        0.0289
     32 C         139.2307  144.8408  162.9371 C.3     1  UNL1        0.0364
     33 C         137.8925  144.1634  162.9614 C.3     1  UNL1        0.1375
     34 O         137.4212  143.3909  161.7652 O.3     1  UNL1       -0.3820
     35 H         137.2820  143.9986  161.0221 H       1  UNL1        0.2104
@<TRIPOS>BOND
     1     3     4    1
     2     4     5   ar
     3     5     6   ar
     4     6     7   ar
     5     7     1    1
     6     1     2    2
     7     2    31    1
     8    31    32    1
     9    32    33    1
    10    33    34    1
    11     2    10    1
    12    10    11   ar
    13    11    12   ar
    14    12    13   ar
    15    13    14   ar
    16    14    15   ar
    17     1    16    1
    18    16    17   ar
    19    17    18   ar
    20    18    19   ar
    21    19    22    1
    22    22    23    1
    23    23    24    1
    24    24    25    1
    25    25    28    1
    26    28    29    1
    27    28    30    1
    28    25    26    1
    29    26    27    1
    30    19    20   ar
    31    20    21   ar
    32     7     8   ar
    33     8     9   ar
    34     9     4   ar
    35    15    10   ar
    36    21    16   ar
    37    27    22    1
    38    34    35    1
@<TRIPOS>MOLECULE
*****
 35 38 0 0 0
SMALL
GASTEIGER

@<TRIPOS>ATOM
      1 C         141.9245  138.1454  156.8143 C.2     1  UNL1       -0.0040
      2 C         142.1616  139.3688  155.9794 C.2     1  UNL1       -0.0221
      3 C         142.8122  132.6945  154.4690 C.3     1  UNL1        0.0310
      4 C         142.5903  134.0573  155.0553 C.ar    1  UNL1       -0.0218
      5 C         143.7061  134.7548  155.7753 C.ar    1  UNL1       -0.0043
      6 C         143.4842  136.1175  156.3616 C.ar    1  UNL1       -0.0003
      7 C         142.1464  136.7827  156.2280 C.ar    1  UNL1       -0.0003
      8 C         141.0306  136.0852  155.5080 C.ar    1  UNL1       -0.0003
      9 C         141.2525  134.7224  154.9217 C.ar    1  UNL1       -0.0043
     10 C         141.9396  140.7315  156.5657 C.ar    1  UNL1       -0.0040
     11 C         140.6152  141.4147  156.3952 C.ar    1  UNL1       -0.0003
     12 C         140.3933  142.7774  156.9815 C.ar    1  UNL1       -0.0000
     13 C         141.4958  143.4569  157.7383 C.ar    1  UNL1       -0.0000
     14 C         142.8203  142.7737  157.9089 C.ar    1  UNL1       -0.0000
     15 C         143.0422  141.4110  157.3225 C.ar    1  UNL1       -0.0003
     16 C         141.4655  138.2847  158.2355 C.ar    1  UNL1       -0.0002
     17 C         140.0036  138.4238  158.5413 C.ar    1  UNL1        0.0013
     18 C         139.5446  138.5631  159.9625 C.ar    1  UNL1        0.0145
     19 C         140.5475  138.5634  161.0780 C.ar    1  UNL1        0.0479
     20 C         142.0094  138.4243  160.7722 C.ar    1  UNL1        0.0145
     21 C         142.4684  138.2850  159.3509 C.ar    1  UNL1        0.0013
     22 N         140.0885  138.7027  162.4993 N.pl3   1  UNL1       -0.3046
     23 C         139.3172  137.5933  163.1505 C.3     1  UNL1        0.1081
     24 C         138.8582  137.7327  164.5717 C.3     1  UNL1        0.0938
     25 N         139.1705  138.9815  165.3416 N.3     1  UNL1       -0.2711
     26 C         139.9418  140.0910  164.6904 C.3     1  UNL1        0.0938
     27 C         140.4008  139.9516  163.2692 C.3     1  UNL1        0.1081
     28 C         138.7115  139.1208  166.7629 C.3     1  UNL1        0.0577
     29 C         139.4750  139.9921  167.7157 C.3     1  UNL1        0.0173
     30 C         137.4889  138.3888  167.2314 C.3     1  UNL1        0.0173
     31 C         142.6206  139.2295  154.5581 C.3     1  UNL1        0.0289
     32 C         144.0454  139.5286  154.1974 C.3     1  UNL1        0.0364
     33 C         145.1632  138.9445  155.0095 C.3     1  UNL1        0.1375
     34 O         145.9111  139.8050  155.9843 O.3     1  UNL1       -0.3820
     35 H         146.4013  140.4890  155.5019 H       1  UNL1        0.2104
@<TRIPOS>BOND
     1     3     4    1
     2     4     5   ar
     3     5     6   ar
     4     6     7   ar
     5     7     1    1
     6     1     2    2
     7     2    31    1
     8    31    32    1
     9    32    33    1
    10    33    34    1
    11     2    10    1
    12    10    11   ar
    13    11    12   ar
    14    12    13   ar
    15    13    14   ar
    16    14    15   ar
    17     1    16    1
    18    16    17   ar
    19    17    18   ar
    20    18    19   ar
    21    19    22    1
    22    22    23    1
    23    23    24    1
    24    24    25    1
    25    25    28    1
    26    28    29    1
    27    28    30    1
    28    25    26    1
    29    26    27    1
    30    19    20   ar
    31    20    21   ar
    32     7     8   ar
    33     8     9   ar
    34     9     4   ar
    35    15    10   ar
    36    21    16   ar
    37    27    22    1
    38    34    35    1
@<TRIPOS>MOLECULE
*****
 35 38 0 0 0
SMALL
GASTEIGER

@<TRIPOS>ATOM
      1 C         140.8853  140.7788  162.1540 C.2     1  UNL1       -0.0040
      2 C         139.4270  140.9371  161.8405 C.2     1  UNL1       -0.0221
      3 C         142.6284  139.4920  167.7492 C.3     1  UNL1        0.0310
      4 C         142.1926  139.8137  166.3504 C.ar    1  UNL1       -0.0218
      5 C         142.0216  141.2428  165.9281 C.ar    1  UNL1       -0.0043
      6 C         141.5858  141.5645  164.5293 C.ar    1  UNL1       -0.0003
      7 C         141.3211  140.4571  163.5528 C.ar    1  UNL1       -0.0003
      8 C         141.4921  139.0280  163.9751 C.ar    1  UNL1       -0.0003
      9 C         141.9279  138.7063  165.3739 C.ar    1  UNL1       -0.0043
     10 C         138.9913  141.2588  160.4417 C.ar    1  UNL1       -0.0040
     11 C         138.4383  140.1777  159.5610 C.ar    1  UNL1       -0.0003
     12 C         138.0026  140.4994  158.1622 C.ar    1  UNL1       -0.0000
     13 C         138.1197  141.9021  157.6441 C.ar    1  UNL1       -0.0000
     14 C         138.6726  142.9833  158.5247 C.ar    1  UNL1       -0.0000
     15 C         139.1084  142.6616  159.9235 C.ar    1  UNL1       -0.0003
     16 C         141.9078  140.9422  161.0688 C.ar    1  UNL1       -0.0002
     17 C         142.2361  139.7888  160.1678 C.ar    1  UNL1        0.0013
     18 C         143.2586  139.9522  159.0825 C.ar    1  UNL1        0.0145
     19 C         143.9528  141.2690  158.8983 C.ar    1  UNL1        0.0479
     20 C         143.6245  142.4225  159.7992 C.ar    1  UNL1        0.0145
     21 C         142.6020  142.2591  160.8845 C.ar    1  UNL1        0.0013
     22 N         144.9753  141.4324  157.8130 N.pl3   1  UNL1       -0.3046
     23 C         144.9704  140.5072  156.6324 C.3     1  UNL1        0.1081
     24 C         145.9929  140.6706  155.5472 C.3     1  UNL1        0.0938
     25 N         147.0203  141.7593  155.6425 N.3     1  UNL1       -0.2711
     26 C         147.0253  142.6846  156.8231 C.3     1  UNL1        0.0938
     27 C         146.0028  142.5211  157.9083 C.3     1  UNL1        0.1081
     28 C         148.0429  141.9227  154.5572 C.3     1  UNL1        0.0577
     29 C         147.6078  142.2552  153.1608 C.3     1  UNL1        0.0173
     30 C         149.5005  141.7535  154.8685 C.3     1  UNL1        0.0173
     31 C         138.4045  140.7736  162.9257 C.3     1  UNL1        0.0289
     32 C         137.4133  141.8673  163.1931 C.3     1  UNL1        0.0364
     33 C         137.8908  143.2656  163.4514 C.3     1  UNL1        0.1375
     34 O         137.4783  144.3801  162.5361 O.3     1  UNL1       -0.3820
     35 H         137.8638  144.2365  161.6577 H       1  UNL1        0.2104
@<TRIPOS>BOND
     1     3     4    1
     2     4     5   ar
     3     5     6   ar
     4     6     7   ar
     5     7     1    1
     6     1     2    2
     7     2    31    1
     8    31    32    1
     9    32    33    1
    10    33    34    1
    11     2    10    1
    12    10    11   ar
    13    11    12   ar
    14    12    13   ar
    15    13    14   ar
    16    14    15   ar
    17     1    16    1
    18    16    17   ar
    19    17    18   ar
    20    18    19   ar
    21    19    22    1
    22    22    23    1
    23    23    24    1
    24    24    25    1
    25    25    28    1
    26    28    29    1
    27    28    30    1
    28    25    26    1
    29    26    27    1
    30    19    20   ar
    31    20    21   ar
    32     7     8   ar
    33     8     9   ar
    34     9     4   ar
    35    15    10   ar
    36    21    16   ar
    37    27    22    1
    38    34    35    1
@<TRIPOS>MOLECULE
*****
 35 38 0 0 0
SMALL
GASTEIGER

@<TRIPOS>ATOM
      1 C         140.4018  141.4663  161.9341 C.2     1  UNL1       -0.0040
      2 C         140.5207  142.9389  161.6748 C.2     1  UNL1       -0.0221
      3 C         138.9393  139.4925  167.4081 C.3     1  UNL1        0.0310
      4 C         139.3049  139.9860  166.0396 C.ar    1  UNL1       -0.0218
      5 C         140.7420  140.2400  165.6931 C.ar    1  UNL1       -0.0043
      6 C         141.1077  140.7335  164.3246 C.ar    1  UNL1       -0.0003
      7 C         140.0362  140.9729  163.3026 C.ar    1  UNL1       -0.0003
      8 C         138.5991  140.7188  163.6491 C.ar    1  UNL1       -0.0003
      9 C         138.2335  140.2253  165.0176 C.ar    1  UNL1       -0.0043
     10 C         140.8863  143.4324  160.3063 C.ar    1  UNL1       -0.0040
     11 C         139.8122  143.8692  159.3548 C.ar    1  UNL1       -0.0003
     12 C         140.1779  144.3627  157.9863 C.ar    1  UNL1       -0.0000
     13 C         141.6176  144.4193  157.5693 C.ar    1  UNL1       -0.0000
     14 C         142.6918  143.9825  158.5208 C.ar    1  UNL1       -0.0000
     15 C         142.3261  143.4890  159.8893 C.ar    1  UNL1       -0.0003
     16 C         140.6486  140.4872  160.8249 C.ar    1  UNL1       -0.0002
     17 C         142.0186  139.9097  160.6252 C.ar    1  UNL1        0.0013
     18 C         142.2654  138.9306  159.5160 C.ar    1  UNL1        0.0145
     19 C         141.1422  138.5289  158.6065 C.ar    1  UNL1        0.0479
     20 C         139.7723  139.1063  158.8062 C.ar    1  UNL1        0.0145
     21 C         139.5255  140.0855  159.9154 C.ar    1  UNL1        0.0013
     22 N         141.3891  137.5497  157.4973 N.pl3   1  UNL1       -0.3046
     23 C         140.3103  137.2643  156.4949 C.3     1  UNL1        0.1081
     24 C         140.5572  136.2852  155.3857 C.3     1  UNL1        0.0938
     25 N         141.8828  135.5914  155.2789 N.3     1  UNL1       -0.2711
     26 C         142.9616  135.8768  156.2813 C.3     1  UNL1        0.0938
     27 C         142.7147  136.8559  157.3905 C.3     1  UNL1        0.1081
     28 C         142.1297  134.6122  154.1697 C.3     1  UNL1        0.0577
     29 C         142.7326  133.2725  154.4723 C.3     1  UNL1        0.0173
     30 C         141.7736  134.9728  152.7579 C.3     1  UNL1        0.0173
     31 C         140.2739  143.9182  162.7840 C.3     1  UNL1        0.0289
     32 C         141.1211  145.1507  162.8987 C.3     1  UNL1        0.0364
     33 C         142.4777  145.0719  163.5340 C.3     1  UNL1        0.1375
     34 O         143.7000  145.4218  162.7382 O.3     1  UNL1       -0.3820
     35 H         143.8172  144.7753  162.0246 H       1  UNL1        0.2104
@<TRIPOS>BOND
     1     3     4    1
     2     4     5   ar
     3     5     6   ar
     4     6     7   ar
     5     7     1    1
     6     1     2    2
     7     2    31    1
     8    31    32    1
     9    32    33    1
    10    33    34    1
    11     2    10    1
    12    10    11   ar
    13    11    12   ar
    14    12    13   ar
    15    13    14   ar
    16    14    15   ar
    17     1    16    1
    18    16    17   ar
    19    17    18   ar
    20    18    19   ar
    21    19    22    1
    22    22    23    1
    23    23    24    1
    24    24    25    1
    25    25    28    1
    26    28    29    1
    27    28    30    1
    28    25    26    1
    29    26    27    1
    30    19    20   ar
    31    20    21   ar
    32     7     8   ar
    33     8     9   ar
    34     9     4   ar
    35    15    10   ar
    36    21    16   ar
    37    27    22    1
    38    34    35    1
