@<TRIPOS>MOLECULE
*****
 28 31 0 0 0
SMALL
GASTEIGER

@<TRIPOS>ATOM
      1 C         144.2035  139.5432  163.3047 C.ar    1  UNL1        0.1547
      2 C         144.2419  139.5050  161.8056 C.ar    1  UNL1        0.0400
      3 C         143.1635  138.7912  161.0457 C.ar    1  UNL1        0.0241
      4 C         142.0467  138.1156  161.7848 C.ar    1  UNL1        0.0033
      5 C         142.0083  138.1538  163.2838 C.ar    1  UNL1        0.0207
      6 C         143.0867  138.8676  164.0438 C.ar    1  UNL1        0.0994
      7 N         143.0482  138.9058  165.5427 N.ar    1  UNL1       -0.2839
      8 C         143.8456  138.0348  166.4677 C.ar    1  UNL1        0.1826
      9 N         143.4957  138.4124  167.8766 N.ar    1  UNL1       -0.2280
     10 C         142.4821  139.5167  167.8224 C.ar    1  UNL1        0.0786
     11 C         141.8551  140.1967  169.0033 C.3     1  UNL1        0.0538
     12 C         142.2055  139.8217  166.3801 C.ar    1  UNL1        0.0963
     13 C         143.2019  138.7530  159.5466 C.ar    1  UNL1        0.1233
     14 C         142.4439  137.8013  158.6694 C.ar    1  UNL1        0.1180
     15 N         142.7785  138.1198  157.2423 N.ar    1  UNL1       -0.2233
     16 N         143.7432  139.2683  157.2375 N.ar    1  UNL1       -0.0634
     17 N         144.0049  139.6597  158.6618 N.ar    1  UNL1       -0.1287
     18 C         142.2424  137.4138  156.0322 C.3     1  UNL1        0.1825
     19 C         140.7714  137.5721  155.7848 C.3     1  UNL1        0.0339
     20 C         139.9429  136.9985  154.6736 C.3     1  UNL1        0.0043
     21 C         140.3807  136.1251  153.5356 C.3     1  UNL1        0.0213
     22 C         141.7552  135.6094  153.2274 C.3     1  UNL1        0.0894
     23 N         143.0313  135.8399  153.9813 N.am    1  UNL1       -0.3028
     24 C         143.2481  136.6430  155.2296 C.2     1  UNL1        0.2449
     25 O         144.6570  136.6800  155.7431 O.2     1  UNL1       -0.2730
     26 H         143.8325  135.4069  153.6075 H       1  UNL1        0.1495
     27 C         145.6984  141.6389  163.6560 C.3     1  UNL1        0.2525
     28 O         145.2819  140.2570  164.0647 O.3     1  UNL1       -0.4700
@<TRIPOS>BOND
     1    27    28    1
     2    28     1    1
     3     1     2   ar
     4     2     3   ar
     5     3    13    1
     6    13    14   ar
     7    14    15   ar
     8    15    18    1
     9    18    19    1
    10    19    20    1
    11    20    21    1
    12    21    22    1
    13    22    23    1
    14    23    24   am
    15    24    25    2
    16    15    16   ar
    17    16    17   ar
    18     3     4   ar
    19     4     5   ar
    20     5     6   ar
    21     6     7    1
    22     7     8   ar
    23     8     9   ar
    24     9    10   ar
    25    10    11    1
    26    10    12   ar
    27     6     1   ar
    28    12     7   ar
    29    17    13   ar
    30    24    18    1
    31    23    26    1
@<TRIPOS>MOLECULE
*****
 28 31 0 0 0
SMALL
GASTEIGER

@<TRIPOS>ATOM
      1 C         142.2149  138.0114  163.3858 C.ar    1  UNL1        0.1547
      2 C         142.2647  137.9495  161.8879 C.ar    1  UNL1        0.0400
      3 C         143.2333  138.8112  161.1335 C.ar    1  UNL1        0.0241
      4 C         144.1522  139.7348  161.8769 C.ar    1  UNL1        0.0033
      5 C         144.1024  139.7966  163.3748 C.ar    1  UNL1        0.0207
      6 C         143.1337  138.9349  164.1293 C.ar    1  UNL1        0.0994
      7 N         143.0839  138.9969  165.6271 N.ar    1  UNL1       -0.2839
      8 C         143.7466  138.0385  166.5718 C.ar    1  UNL1        0.1826
      9 N         143.4349  138.4774  167.9718 N.ar    1  UNL1       -0.2280
     10 C         142.5796  139.7071  167.8925 C.ar    1  UNL1        0.0786
     11 C         142.0365  140.4800  169.0577 C.3     1  UNL1        0.0538
     12 C         142.3626  140.0282  166.4434 C.ar    1  UNL1        0.0963
     13 C         143.2832  138.7493  159.6355 C.ar    1  UNL1        0.1233
     14 C         142.6327  137.7078  158.7741 C.ar    1  UNL1        0.1180
     15 N         142.9397  138.0328  157.3423 N.ar    1  UNL1       -0.2233
     16 N         143.7799  139.2752  157.3188 N.ar    1  UNL1       -0.0634
     17 N         143.9922  139.7180  158.7362 N.ar    1  UNL1       -0.1287
     18 C         142.4862  137.2526  156.1441 C.3     1  UNL1        0.1825
     19 C         143.3221  136.0582  155.7908 C.3     1  UNL1        0.0339
     20 C         143.1350  135.0861  154.6638 C.3     1  UNL1        0.0043
     21 C         142.0659  135.0682  153.6119 C.3     1  UNL1        0.0213
     22 C         140.9197  136.0180  153.4271 C.3     1  UNL1        0.0894
     23 N         140.5596  137.2203  154.2486 N.am    1  UNL1       -0.3028
     24 C         141.2568  137.7697  155.4578 C.2     1  UNL1        0.2449
     25 O         140.6434  138.9988  156.0603 O.2     1  UNL1       -0.2730
     26 H         139.7600  137.7141  153.9554 H       1  UNL1        0.1495
     27 C         139.9275  137.7125  164.5811 C.3     1  UNL1        0.2525
     28 O         141.2462  137.1497  164.1403 O.3     1  UNL1       -0.4700
@<TRIPOS>BOND
     1    27    28    1
     2    28     1    1
     3     1     2   ar
     4     2     3   ar
     5     3    13    1
     6    13    14   ar
     7    14    15   ar
     8    15    18    1
     9    18    19    1
    10    19    20    1
    11    20    21    1
    12    21    22    1
    13    22    23    1
    14    23    24   am
    15    24    25    2
    16    15    16   ar
    17    16    17   ar
    18     3     4   ar
    19     4     5   ar
    20     5     6   ar
    21     6     7    1
    22     7     8   ar
    23     8     9   ar
    24     9    10   ar
    25    10    11    1
    26    10    12   ar
    27     6     1   ar
    28    12     7   ar
    29    17    13   ar
    30    24    18    1
    31    23    26    1
@<TRIPOS>MOLECULE
*****
 28 31 0 0 0
SMALL
GASTEIGER

@<TRIPOS>ATOM
      1 C         139.5600  141.0382  165.8335 C.ar    1  UNL1        0.1547
      2 C         139.3217  141.8357  164.5856 C.ar    1  UNL1        0.0400
      3 C         140.2362  142.9720  164.2357 C.ar    1  UNL1        0.0241
      4 C         141.3890  143.3108  165.1337 C.ar    1  UNL1        0.0033
      5 C         141.6272  142.5133  166.3815 C.ar    1  UNL1        0.0207
      6 C         140.7127  141.3770  166.7315 C.ar    1  UNL1        0.0994
      7 N         140.9510  140.5795  167.9793 N.ar    1  UNL1       -0.2839
      8 C         140.0106  140.4588  169.1416 C.ar    1  UNL1        0.1826
      9 N         140.6501  139.5674  170.1646 N.ar    1  UNL1       -0.2280
     10 C         141.9857  139.1372  169.6346 C.ar    1  UNL1        0.0786
     11 C         142.9637  138.2392  170.3326 C.3     1  UNL1        0.0538
     12 C         142.1718  139.7627  168.2840 C.ar    1  UNL1        0.0963
     13 C         139.9979  143.7695  162.9878 C.ar    1  UNL1        0.1233
     14 C         140.5203  143.4435  161.6200 C.ar    1  UNL1        0.1180
     15 N         140.0408  144.5055  160.6754 N.ar    1  UNL1       -0.2233
     16 N         139.2221  145.4879  161.4594 N.ar    1  UNL1       -0.0634
     17 N         139.1956  145.0330  162.8886 N.ar    1  UNL1       -0.1287
     18 C         140.3293  144.5733  159.2050 C.3     1  UNL1        0.1825
     19 C         141.4577  145.4769  158.8042 C.3     1  UNL1        0.0339
     20 C         141.9867  145.7589  157.4292 C.3     1  UNL1        0.0043
     21 C         141.5181  145.2072  156.1155 C.3     1  UNL1        0.0213
     22 C         140.4047  144.2371  155.8522 C.3     1  UNL1        0.0894
     23 N         139.4849  143.5792  156.8376 N.am    1  UNL1       -0.3028
     24 C         139.4514  143.7289  158.3298 C.2     1  UNL1        0.2449
     25 O         138.4010  142.9281  159.0407 O.2     1  UNL1       -0.2730
     26 H         138.8146  142.9684  156.4544 H       1  UNL1        0.1495
     27 C         138.8645  138.5482  165.5753 C.3     1  UNL1        0.2525
     28 O         138.6455  139.9018  166.1835 O.3     1  UNL1       -0.4700
@<TRIPOS>BOND
     1    27    28    1
     2    28     1    1
     3     1     2   ar
     4     2     3   ar
     5     3    13    1
     6    13    14   ar
     7    14    15   ar
     8    15    18    1
     9    18    19    1
    10    19    20    1
    11    20    21    1
    12    21    22    1
    13    22    23    1
    14    23    24   am
    15    24    25    2
    16    15    16   ar
    17    16    17   ar
    18     3     4   ar
    19     4     5   ar
    20     5     6   ar
    21     6     7    1
    22     7     8   ar
    23     8     9   ar
    24     9    10   ar
    25    10    11    1
    26    10    12   ar
    27     6     1   ar
    28    12     7   ar
    29    17    13   ar
    30    24    18    1
    31    23    26    1
@<TRIPOS>MOLECULE
*****
 28 31 0 0 0
SMALL
GASTEIGER

@<TRIPOS>ATOM
      1 C         141.1057  138.7636  159.9468 C.ar    1  UNL1        0.1547
      2 C         140.6946  139.0348  161.3637 C.ar    1  UNL1        0.0400
      3 C         141.6301  138.7118  162.4909 C.ar    1  UNL1        0.0241
      4 C         142.9766  138.1176  162.2012 C.ar    1  UNL1        0.0033
      5 C         143.3876  137.8464  160.7844 C.ar    1  UNL1        0.0207
      6 C         142.4521  138.1694  159.6571 C.ar    1  UNL1        0.0994
      7 N         142.8632  137.8982  158.2403 N.ar    1  UNL1       -0.2839
      8 C         143.3652  138.9145  157.2579 C.ar    1  UNL1        0.1826
      9 N         143.6567  138.2074  155.9676 N.ar    1  UNL1       -0.2280
     10 C         143.3349  136.7541  156.1525 C.ar    1  UNL1        0.0786
     11 C         143.4783  135.6804  155.1149 C.3     1  UNL1        0.0538
     12 C         142.8445  136.5629  157.5571 C.ar    1  UNL1        0.0963
     13 C         141.2191  138.9830  163.9078 C.ar    1  UNL1        0.1233
     14 C         141.8846  139.9411  164.8507 C.ar    1  UNL1        0.1180
     15 N         141.1473  139.8940  166.1562 N.ar    1  UNL1       -0.2233
     16 N         140.0262  138.9068  166.0201 N.ar    1  UNL1       -0.0634
     17 N         140.0706  138.3437  164.6304 N.ar    1  UNL1       -0.1287
     18 C         141.4737  140.6936  167.3826 C.3     1  UNL1        0.1825
     19 C         140.6887  141.9591  167.5623 C.3     1  UNL1        0.0339
     20 C         140.7780  142.9657  168.6710 C.3     1  UNL1        0.0043
     21 C         141.6744  142.9552  169.8735 C.3     1  UNL1        0.0213
     22 C         142.7029  141.9358  170.2646 C.3     1  UNL1        0.0894
     23 N         143.0890  140.6749  169.5496 N.am    1  UNL1       -0.3028
     24 C         142.5419  140.1222  168.2670 C.2     1  UNL1        0.2449
     25 O         143.1425  138.8265  167.8081 O.2     1  UNL1       -0.2730
     26 H         143.7948  140.1394  169.9790 H       1  UNL1        0.1495
     27 C         138.8499  139.7391  159.1042 C.3     1  UNL1        0.2525
     28 O         140.1703  139.0867  158.8195 O.3     1  UNL1       -0.4700
@<TRIPOS>BOND
     1    27    28    1
     2    28     1    1
     3     1     2   ar
     4     2     3   ar
     5     3    13    1
     6    13    14   ar
     7    14    15   ar
     8    15    18    1
     9    18    19    1
    10    19    20    1
    11    20    21    1
    12    21    22    1
    13    22    23    1
    14    23    24   am
    15    24    25    2
    16    15    16   ar
    17    16    17   ar
    18     3     4   ar
    19     4     5   ar
    20     5     6   ar
    21     6     7    1
    22     7     8   ar
    23     8     9   ar
    24     9    10   ar
    25    10    11    1
    26    10    12   ar
    27     6     1   ar
    28    12     7   ar
    29    17    13   ar
    30    24    18    1
    31    23    26    1
@<TRIPOS>MOLECULE
*****
 28 31 0 0 0
SMALL
GASTEIGER

@<TRIPOS>ATOM
      1 C         139.1175  140.0500  158.9099 C.ar    1  UNL1        0.1547
      2 C         139.9393  139.2321  157.9582 C.ar    1  UNL1        0.0400
      3 C         141.2463  138.6485  158.4064 C.ar    1  UNL1        0.0241
      4 C         141.7316  138.8828  159.8063 C.ar    1  UNL1        0.0033
      5 C         140.9099  139.7007  160.7579 C.ar    1  UNL1        0.0207
      6 C         139.6028  140.2843  160.3098 C.ar    1  UNL1        0.0994
      7 N         138.7810  141.1022  161.2615 N.ar    1  UNL1       -0.2839
      8 C         137.6438  140.6001  162.1008 C.ar    1  UNL1        0.1826
      9 N         137.1122  141.7535  162.8990 N.ar    1  UNL1       -0.2280
     10 C         137.9209  142.9684  162.5530 C.ar    1  UNL1        0.0786
     11 C         137.7315  144.3444  163.1195 C.3     1  UNL1        0.0538
     12 C         138.9523  142.5661  161.5409 C.ar    1  UNL1        0.0963
     13 C         142.0682  137.8305  157.4548 C.ar    1  UNL1        0.1233
     14 C         141.6393  136.5559  156.7904 C.ar    1  UNL1        0.1180
     15 N         142.7691  136.0812  155.9254 N.ar    1  UNL1       -0.2233
     16 N         143.8962  137.0623  156.0553 N.ar    1  UNL1       -0.0634
     17 N         143.4630  138.1436  157.0005 N.ar    1  UNL1       -0.1287
     18 C         142.7716  134.8427  155.0792 C.3     1  UNL1        0.1825
     19 C         142.0734  134.9570  153.7564 C.3     1  UNL1        0.0339
     20 C         141.9031  133.9105  152.6953 C.3     1  UNL1        0.0043
     21 C         142.3887  132.4914  152.6949 C.3     1  UNL1        0.0213
     22 C         143.1647  131.7681  153.7555 C.3     1  UNL1        0.0894
     23 N         143.6466  132.2854  155.0784 N.am    1  UNL1       -0.3028
     24 C         143.4716  133.6537  155.6674 C.2     1  UNL1        0.2449
     25 O         144.0768  133.8604  157.0243 O.2     1  UNL1       -0.2730
     26 H         144.1435  131.6417  155.6334 H       1  UNL1        0.1495
     27 C         137.7929  141.7739  157.4872 C.3     1  UNL1        0.2525
     28 O         137.8104  140.6337  158.4618 O.3     1  UNL1       -0.4700
@<TRIPOS>BOND
     1    27    28    1
     2    28     1    1
     3     1     2   ar
     4     2     3   ar
     5     3    13    1
     6    13    14   ar
     7    14    15   ar
     8    15    18    1
     9    18    19    1
    10    19    20    1
    11    20    21    1
    12    21    22    1
    13    22    23    1
    14    23    24   am
    15    24    25    2
    16    15    16   ar
    17    16    17   ar
    18     3     4   ar
    19     4     5   ar
    20     5     6   ar
    21     6     7    1
    22     7     8   ar
    23     8     9   ar
    24     9    10   ar
    25    10    11    1
    26    10    12   ar
    27     6     1   ar
    28    12     7   ar
    29    17    13   ar
    30    24    18    1
    31    23    26    1
@<TRIPOS>MOLECULE
*****
 28 31 0 0 0
SMALL
GASTEIGER

@<TRIPOS>ATOM
      1 C         143.5736  139.5805  158.4904 C.ar    1  UNL1        0.1547
      2 C         143.0818  138.9813  159.7746 C.ar    1  UNL1        0.0400
      3 C         143.0368  139.8135  161.0217 C.ar    1  UNL1        0.0241
      4 C         143.4836  141.2450  160.9847 C.ar    1  UNL1        0.0033
      5 C         143.9754  141.8441  159.7006 C.ar    1  UNL1        0.0207
      6 C         144.0204  141.0119  158.4534 C.ar    1  UNL1        0.0994
      7 N         144.5122  141.6111  157.1693 N.ar    1  UNL1       -0.2839
      8 C         143.6563  142.0794  156.0300 C.ar    1  UNL1        0.1826
      9 N         144.5615  142.6050  154.9556 N.ar    1  UNL1       -0.2280
     10 C         145.9769  142.4616  155.4309 C.ar    1  UNL1        0.0786
     11 C         147.2069  142.8621  154.6714 C.3     1  UNL1        0.0538
     12 C         145.9466  141.8473  156.7990 C.ar    1  UNL1        0.0963
     13 C         142.5449  139.2143  162.3059 C.ar    1  UNL1        0.1233
     14 C         142.5014  139.9005  163.6391 C.ar    1  UNL1        0.1180
     15 N         141.9399  138.9341  164.6396 N.ar    1  UNL1       -0.2233
     16 N         141.6364  137.6508  163.9248 N.ar    1  UNL1       -0.0634
     17 N         142.0104  137.8240  162.4824 N.ar    1  UNL1       -0.1287
     18 C         141.7203  139.2037  166.0987 C.3     1  UNL1        0.1825
     19 C         140.3760  139.7613  166.4624 C.3     1  UNL1        0.0339
     20 C         139.8535  140.1329  167.8185 C.3     1  UNL1        0.0043
     21 C         140.5460  140.0388  169.1456 C.3     1  UNL1        0.0213
     22 C         141.9322  139.5498  169.4447 C.3     1  UNL1        0.0894
     23 N         142.9682  139.0341  168.4903 N.am    1  UNL1       -0.3028
     24 C         142.8738  138.8801  167.0012 C.2     1  UNL1        0.2449
     25 O         144.0945  138.3297  166.3252 O.2     1  UNL1       -0.2730
     26 H         143.8231  138.7606  168.8947 H       1  UNL1        0.1495
     27 C         142.6415  137.6259  157.0549 C.3     1  UNL1        0.2525
     28 O         143.6186  138.7483  157.2433 O.3     1  UNL1       -0.4700
@<TRIPOS>BOND
     1    27    28    1
     2    28     1    1
     3     1     2   ar
     4     2     3   ar
     5     3    13    1
     6    13    14   ar
     7    14    15   ar
     8    15    18    1
     9    18    19    1
    10    19    20    1
    11    20    21    1
    12    21    22    1
    13    22    23    1
    14    23    24   am
    15    24    25    2
    16    15    16   ar
    17    16    17   ar
    18     3     4   ar
    19     4     5   ar
    20     5     6   ar
    21     6     7    1
    22     7     8   ar
    23     8     9   ar
    24     9    10   ar
    25    10    11    1
    26    10    12   ar
    27     6     1   ar
    28    12     7   ar
    29    17    13   ar
    30    24    18    1
    31    23    26    1
@<TRIPOS>MOLECULE
*****
 28 31 0 0 0
SMALL
GASTEIGER

@<TRIPOS>ATOM
      1 C         140.2042  138.9418  159.3058 C.ar    1  UNL1        0.1547
      2 C         139.5542  139.3488  160.5950 C.ar    1  UNL1        0.0400
      3 C         140.3937  139.5928  161.8139 C.ar    1  UNL1        0.0241
      4 C         141.8832  139.4299  161.7436 C.ar    1  UNL1        0.0033
      5 C         142.5331  139.0230  160.4545 C.ar    1  UNL1        0.0207
      6 C         141.6936  138.7789  159.2356 C.ar    1  UNL1        0.0994
      7 N         142.3436  138.3719  157.9465 N.ar    1  UNL1       -0.2839
      8 C         142.6888  139.2838  156.8067 C.ar    1  UNL1        0.1826
      9 N         143.3212  138.4570  155.7266 N.ar    1  UNL1       -0.2280
     10 C         143.3667  137.0341  156.1989 C.ar    1  UNL1        0.0786
     11 C         143.9195  135.8683  155.4336 C.3     1  UNL1        0.0538
     12 C         142.7626  136.9814  157.5708 C.ar    1  UNL1        0.0963
     13 C         139.7437  139.9998  163.1031 C.ar    1  UNL1        0.1233
     14 C         140.4414  140.2097  164.4143 C.ar    1  UNL1        0.1180
     15 N         139.4110  140.6079  165.4290 N.ar    1  UNL1       -0.2233
     16 N         138.0766  140.6442  164.7450 N.ar    1  UNL1       -0.0634
     17 N         138.2822  140.2683  163.3074 N.ar    1  UNL1       -0.1287
     18 C         139.6695  140.9159  166.8741 C.3     1  UNL1        0.1825
     19 C         140.3890  142.2036  167.1464 C.3     1  UNL1        0.0339
     20 C         140.7911  142.7890  168.4678 C.3     1  UNL1        0.0043
     21 C         140.5730  142.2311  169.8429 C.3     1  UNL1        0.0213
     22 C         139.8989  140.9503  170.2366 C.3     1  UNL1        0.0894
     23 N         139.2765  139.9108  169.3522 N.am    1  UNL1       -0.3028
     24 C         139.1744  139.8956  167.8557 C.2     1  UNL1        0.2449
     25 O         138.4862  138.7021  167.2625 O.2     1  UNL1       -0.2730
     26 H         138.8829  139.1362  169.8151 H       1  UNL1        0.1495
     27 C         138.9702  139.8458  157.2058 C.3     1  UNL1        0.2525
     28 O         139.3647  138.6977  158.0869 O.3     1  UNL1       -0.4700
@<TRIPOS>BOND
     1    27    28    1
     2    28     1    1
     3     1     2   ar
     4     2     3   ar
     5     3    13    1
     6    13    14   ar
     7    14    15   ar
     8    15    18    1
     9    18    19    1
    10    19    20    1
    11    20    21    1
    12    21    22    1
    13    22    23    1
    14    23    24   am
    15    24    25    2
    16    15    16   ar
    17    16    17   ar
    18     3     4   ar
    19     4     5   ar
    20     5     6   ar
    21     6     7    1
    22     7     8   ar
    23     8     9   ar
    24     9    10   ar
    25    10    11    1
    26    10    12   ar
    27     6     1   ar
    28    12     7   ar
    29    17    13   ar
    30    24    18    1
    31    23    26    1
@<TRIPOS>MOLECULE
*****
 28 31 0 0 0
SMALL
GASTEIGER

@<TRIPOS>ATOM
      1 C         140.4385  140.9621  164.5254 C.ar    1  UNL1        0.1547
      2 C         140.2947  141.7160  163.2366 C.ar    1  UNL1        0.0400
      3 C         140.2004  143.2130  163.2499 C.ar    1  UNL1        0.0241
      4 C         140.2499  143.9561  164.5520 C.ar    1  UNL1        0.0033
      5 C         140.3937  143.2021  165.8408 C.ar    1  UNL1        0.0207
      6 C         140.4880  141.7051  165.8275 C.ar    1  UNL1        0.0994
      7 N         140.6318  140.9513  167.1163 N.ar    1  UNL1       -0.2839
      8 C         139.5122  140.3671  167.9257 C.ar    1  UNL1        0.1826
      9 N         140.1090  139.7040  169.1316 N.ar    1  UNL1       -0.2280
     10 C         141.5974  139.8785  169.0675 C.ar    1  UNL1        0.0786
     11 C         142.5887  139.3711  170.0725 C.3     1  UNL1        0.0538
     12 C         141.9206  140.6493  167.8220 C.ar    1  UNL1        0.0963
     13 C         140.0566  143.9670  161.9611 C.ar    1  UNL1        0.1233
     14 C         140.3845  143.4455  160.5934 C.ar    1  UNL1        0.1180
     15 N         140.0902  144.5310  159.6008 N.ar    1  UNL1       -0.2233
     16 N         139.5805  145.7231  160.3550 N.ar    1  UNL1       -0.0634
     17 N         139.5597  145.3745  161.8138 N.ar    1  UNL1       -0.1287
     18 C         140.2735  144.4402  158.1148 C.3     1  UNL1        0.1825
     19 C         139.2649  143.6037  157.3846 C.3     1  UNL1        0.0339
     20 C         139.1749  143.3184  155.9147 C.3     1  UNL1        0.0043
     21 C         140.0710  143.7990  154.8121 C.3     1  UNL1        0.0213
     22 C         141.2787  144.6837  154.9069 C.3     1  UNL1        0.0894
     23 N         141.8883  145.3062  156.1279 N.am    1  UNL1       -0.3028
     24 C         141.4409  145.1978  157.5555 C.2     1  UNL1        0.2449
     25 O         142.2709  145.9461  158.5562 O.2     1  UNL1       -0.2730
     26 H         142.6878  145.8591  155.9715 H       1  UNL1        0.1495
     27 C         139.2842  138.6346  164.5515 C.3     1  UNL1        0.2525
     28 O         140.5327  139.4651  164.5122 O.3     1  UNL1       -0.4700
@<TRIPOS>BOND
     1    27    28    1
     2    28     1    1
     3     1     2   ar
     4     2     3   ar
     5     3    13    1
     6    13    14   ar
     7    14    15   ar
     8    15    18    1
     9    18    19    1
    10    19    20    1
    11    20    21    1
    12    21    22    1
    13    22    23    1
    14    23    24   am
    15    24    25    2
    16    15    16   ar
    17    16    17   ar
    18     3     4   ar
    19     4     5   ar
    20     5     6   ar
    21     6     7    1
    22     7     8   ar
    23     8     9   ar
    24     9    10   ar
    25    10    11    1
    26    10    12   ar
    27     6     1   ar
    28    12     7   ar
    29    17    13   ar
    30    24    18    1
    31    23    26    1
@<TRIPOS>MOLECULE
*****
 28 31 0 0 0
SMALL
GASTEIGER

@<TRIPOS>ATOM
      1 C         141.4019  140.8632  159.6848 C.ar    1  UNL1        0.1547
      2 C         142.1906  139.9721  158.7714 C.ar    1  UNL1        0.0400
      3 C         141.5615  138.7343  158.2042 C.ar    1  UNL1        0.0241
      4 C         140.1437  138.3874  158.5503 C.ar    1  UNL1        0.0033
      5 C         139.3551  139.2785  159.4635 C.ar    1  UNL1        0.0207
      6 C         139.9842  140.5164  160.0308 C.ar    1  UNL1        0.0994
      7 N         139.1955  141.4074  160.9440 N.ar    1  UNL1       -0.2839
      8 C         138.4488  142.6442  160.5407 C.ar    1  UNL1        0.1826
      9 N         137.8069  143.2192  161.7685 N.ar    1  UNL1       -0.2280
     10 C         138.1570  142.3378  162.9306 C.ar    1  UNL1        0.0786
     11 C         137.7247  142.5406  164.3526 C.3     1  UNL1        0.0538
     12 C         139.0152  141.2180  162.4212 C.ar    1  UNL1        0.0963
     13 C         142.3500  137.8431  157.2909 C.ar    1  UNL1        0.1233
     14 C         141.9271  136.4916  156.7965 C.ar    1  UNL1        0.1180
     15 N         143.0156  135.9602  155.9117 N.ar    1  UNL1       -0.2233
     16 N         144.1112  136.9833  155.8593 N.ar    1  UNL1       -0.0634
     17 N         143.6999  138.1471  156.7118 N.ar    1  UNL1       -0.1287
     18 C         143.0096  134.6379  155.2036 C.3     1  UNL1        0.1825
     19 C         142.3396  134.6215  153.8615 C.3     1  UNL1        0.0339
     20 C         142.1689  133.4699  152.9155 C.3     1  UNL1        0.0043
     21 C         142.6259  132.0506  153.0779 C.3     1  UNL1        0.0213
     22 C         143.3666  131.4320  154.2264 C.3     1  UNL1        0.0894
     23 N         143.8331  132.0802  155.4961 N.am    1  UNL1       -0.3028
     24 C         143.6742  133.5070  155.9309 C.2     1  UNL1        0.2449
     25 O         144.2570  133.8479  157.2704 O.2     1  UNL1       -0.2730
     26 H         144.3062  131.4914  156.1275 H       1  UNL1        0.1495
     27 C         142.6918  142.0574  161.5980 C.3     1  UNL1        0.2525
     28 O         142.0310  142.1012  160.2521 O.3     1  UNL1       -0.4700
@<TRIPOS>BOND
     1    27    28    1
     2    28     1    1
     3     1     2   ar
     4     2     3   ar
     5     3    13    1
     6    13    14   ar
     7    14    15   ar
     8    15    18    1
     9    18    19    1
    10    19    20    1
    11    20    21    1
    12    21    22    1
    13    22    23    1
    14    23    24   am
    15    24    25    2
    16    15    16   ar
    17    16    17   ar
    18     3     4   ar
    19     4     5   ar
    20     5     6   ar
    21     6     7    1
    22     7     8   ar
    23     8     9   ar
    24     9    10   ar
    25    10    11    1
    26    10    12   ar
    27     6     1   ar
    28    12     7   ar
    29    17    13   ar
    30    24    18    1
    31    23    26    1
