@<TRIPOS>MOLECULE
*****
 33 36 0 0 0
SMALL
GASTEIGER

@<TRIPOS>ATOM
      1 C         140.3715  145.1347  160.4332 C.ar    1  UNL1        0.2181
      2 N         141.8444  144.8647  160.5185 N.ar    1  UNL1       -0.1986
      3 C         142.4067  144.1404  161.7057 C.ar    1  UNL1        0.1389
      4 C         141.4958  143.6863  162.8076 C.ar    1  UNL1        0.0786
      5 S         141.7596  142.9558  164.0908 S.2     1  UNL1       -0.0826
      6 C         140.4495  142.7744  164.7986 C.ar    1  UNL1        0.0311
      7 C         139.3761  143.3928  163.9527 C.ar    1  UNL1        0.0263
      8 C         140.0228  143.9564  162.7222 C.ar    1  UNL1        0.0933
      9 N         139.4606  144.6806  161.5350 N.ar    1  UNL1       -0.2132
     10 C         140.2482  142.0941  166.1202 C.ar    1  UNL1        0.0060
     11 C         139.6439  140.7222  166.1732 C.ar    1  UNL1        0.0004
     12 C         139.4426  140.0419  167.4949 C.ar    1  UNL1        0.0039
     13 C         139.8455  140.7335  168.7635 C.ar    1  UNL1        0.0714
     14 C         140.4498  142.1054  168.7105 C.ar    1  UNL1        0.0039
     15 C         140.6511  142.7856  167.3888 C.ar    1  UNL1        0.0004
     16 C         139.6442  140.0532  170.0851 C.3     1  UNL1        0.4186
     17 F         139.4429  139.3729  171.4066 F       1  UNL1       -0.1659
     18 F         141.0216  139.4664  169.9928 F       1  UNL1       -0.1659
     19 F         138.2668  140.6400  170.1772 F       1  UNL1       -0.1659
     20 C         140.4861  145.7505  157.9117 C.3     1  UNL1        0.1108
     21 N         139.8093  145.8590  159.2459 N.pl3   1  UNL1       -0.3013
     22 H         138.9961  146.4055  159.3424 H       1  UNL1        0.1497
     23 N         143.8797  143.8703  161.7910 N.pl3   1  UNL1       -0.3164
     24 H         144.4766  144.5266  162.2180 H       1  UNL1        0.1483
     25 C         144.4433  142.6004  161.2258 C.3     1  UNL1        0.1057
     26 C         144.8340  141.4797  162.1431 C.3     1  UNL1        0.0936
     27 N         144.1284  140.1589  162.0564 N.3     1  UNL1       -0.2689
     28 C         143.4305  139.6009  163.2613 C.3     1  UNL1        0.0895
     29 C         142.7249  138.2801  163.1745 C.3     1  UNL1        0.0862
     30 N         142.7172  137.5172  161.8830 N.3     1  UNL1       -0.2951
     31 C         143.4151  138.0752  160.6782 C.3     1  UNL1        0.0862
     32 C         144.1207  139.3961  160.7649 C.3     1  UNL1        0.0895
     33 H         141.7393  137.3879  161.6233 H       1  UNL1        0.1233
@<TRIPOS>BOND
     1    20    21    1
     2    21     1    1
     3     1     2   ar
     4     2     3   ar
     5     3    23    1
     6    23    25    1
     7    25    26    1
     8    26    27    1
     9    27    28    1
    10    28    29    1
    11    29    30    1
    12    30    31    1
    13    31    32    1
    14     3     4   ar
    15     4     5   ar
    16     5     6   ar
    17     6    10    1
    18    10    11   ar
    19    11    12   ar
    20    12    13   ar
    21    13    16    1
    22    16    17    1
    23    16    18    1
    24    16    19    1
    25    13    14   ar
    26    14    15   ar
    27     6     7   ar
    28     7     8   ar
    29     8     9   ar
    30     9     1   ar
    31    32    27    1
    32     8     4   ar
    33    15    10   ar
    34    21    22    1
    35    23    24    1
    36    30    33    1
@<TRIPOS>MOLECULE
*****
 33 36 0 0 0
SMALL
GASTEIGER

@<TRIPOS>ATOM
      1 C         140.9149  144.7348  160.2700 C.ar    1  UNL1        0.2181
      2 N         139.8404  143.7946  159.8102 N.ar    1  UNL1       -0.1986
      3 C         139.2277  142.8253  160.7773 C.ar    1  UNL1        0.1389
      4 C         139.6897  142.7962  162.2040 C.ar    1  UNL1        0.0786
      5 S         139.2749  141.9574  163.3764 S.2     1  UNL1       -0.0826
      6 C         140.0930  142.3793  164.5607 C.ar    1  UNL1        0.0311
      7 C         141.0135  143.4787  164.1203 C.ar    1  UNL1        0.0263
      8 C         140.7642  143.7364  162.6638 C.ar    1  UNL1        0.0933
      9 N         141.3768  144.7057  161.6968 N.ar    1  UNL1       -0.2132
     10 C         140.0061  141.8028  165.9428 C.ar    1  UNL1        0.0060
     11 C         139.3425  140.4755  166.1614 C.ar    1  UNL1        0.0004
     12 C         139.2555  139.8991  167.5436 C.ar    1  UNL1        0.0039
     13 C         139.8321  140.6501  168.7071 C.ar    1  UNL1        0.0714
     14 C         140.4957  141.9774  168.4884 C.ar    1  UNL1        0.0039
     15 C         140.5827  142.5538  167.1062 C.ar    1  UNL1        0.0004
     16 C         139.7452  140.0736  170.0892 C.3     1  UNL1        0.4186
     17 F         139.6582  139.4973  171.4712 F       1  UNL1       -0.1659
     18 F         141.2364  139.9139  170.1164 F       1  UNL1       -0.1659
     19 F         138.2539  140.2334  170.0618 F       1  UNL1       -0.1659
     20 C         140.9959  145.8050  157.9039 C.3     1  UNL1        0.1108
     21 N         141.5275  145.7042  159.3029 N.pl3   1  UNL1       -0.3013
     22 H         142.2785  146.2742  159.5865 H       1  UNL1        0.1497
     23 N         138.1532  141.8851  160.3174 N.pl3   1  UNL1       -0.3164
     24 H         137.2080  142.1565  160.3652 H       1  UNL1        0.1483
     25 C         138.5186  140.5313  159.7848 C.3     1  UNL1        0.1057
     26 C         138.2304  139.3032  160.5965 C.3     1  UNL1        0.0936
     27 N         139.3471  138.5887  161.2981 N.3     1  UNL1       -0.2689
     28 C         139.1247  138.0061  162.6623 C.3     1  UNL1        0.0895
     29 C         140.2416  137.2916  163.3639 C.3     1  UNL1        0.0862
     30 N         141.5808  137.1597  162.7013 N.3     1  UNL1       -0.2951
     31 C         141.8033  137.7424  161.3371 C.3     1  UNL1        0.0862
     32 C         140.6864  138.4569  160.6355 C.3     1  UNL1        0.0895
     33 H         141.7774  136.1614  162.6307 H       1  UNL1        0.1233
@<TRIPOS>BOND
     1    20    21    1
     2    21     1    1
     3     1     2   ar
     4     2     3   ar
     5     3    23    1
     6    23    25    1
     7    25    26    1
     8    26    27    1
     9    27    28    1
    10    28    29    1
    11    29    30    1
    12    30    31    1
    13    31    32    1
    14     3     4   ar
    15     4     5   ar
    16     5     6   ar
    17     6    10    1
    18    10    11   ar
    19    11    12   ar
    20    12    13   ar
    21    13    16    1
    22    16    17    1
    23    16    18    1
    24    16    19    1
    25    13    14   ar
    26    14    15   ar
    27     6     7   ar
    28     7     8   ar
    29     8     9   ar
    30     9     1   ar
    31    32    27    1
    32     8     4   ar
    33    15    10   ar
    34    21    22    1
    35    23    24    1
    36    30    33    1
@<TRIPOS>MOLECULE
*****
 33 36 0 0 0
SMALL
GASTEIGER

@<TRIPOS>ATOM
      1 C         138.2083  139.9407  160.0397 C.ar    1  UNL1        0.2181
      2 N         139.2944  138.9095  160.1208 N.ar    1  UNL1       -0.1986
      3 C         140.0277  138.6924  161.4113 C.ar    1  UNL1        0.1389
      4 C         139.6746  139.5065  162.6206 C.ar    1  UNL1        0.0786
      5 S         140.2190  139.5157  164.0183 S.2     1  UNL1       -0.0826
      6 C         139.4691  140.5526  164.8010 C.ar    1  UNL1        0.0311
      7 C         138.4614  141.1843  163.8870 C.ar    1  UNL1        0.0263
      8 C         138.5883  140.5378  162.5395 C.ar    1  UNL1        0.0933
      9 N         137.8552  140.7549  161.2490 N.ar    1  UNL1       -0.2132
     10 C         139.6886  140.8973  166.2442 C.ar    1  UNL1        0.0060
     11 C         140.2597  142.2331  166.6179 C.ar    1  UNL1        0.0004
     12 C         140.4791  142.5777  168.0612 C.ar    1  UNL1        0.0039
     13 C         140.1274  141.5867  169.1308 C.ar    1  UNL1        0.0714
     14 C         139.5563  140.2510  168.7572 C.ar    1  UNL1        0.0039
     15 C         139.3369  139.9063  167.3139 C.ar    1  UNL1        0.0004
     16 C         140.3468  141.9314  170.5741 C.3     1  UNL1        0.4186
     17 F         140.5662  142.2762  172.0173 F       1  UNL1       -0.1659
     18 F         140.9840  140.5919  170.7972 F       1  UNL1       -0.1659
     19 F         139.7096  143.2709  170.3509 F       1  UNL1       -0.1659
     20 C         137.9313  141.2239  157.7976 C.3     1  UNL1        0.1108
     21 N         137.4750  140.1579  158.7492 N.pl3   1  UNL1       -0.3013
     22 H         136.6944  139.6008  158.5267 H       1  UNL1        0.1497
     23 N         141.1139  137.6610  161.4924 N.pl3   1  UNL1       -0.3164
     24 H         140.8873  136.7210  161.6774 H       1  UNL1        0.1483
     25 C         142.5453  138.0620  161.2917 C.3     1  UNL1        0.1057
     26 C         143.4077  138.3818  162.4767 C.3     1  UNL1        0.0936
     27 N         144.1656  139.6753  162.5255 N.3     1  UNL1       -0.2689
     28 C         144.9789  140.0229  163.7370 C.3     1  UNL1        0.0895
     29 C         145.7367  141.3164  163.7857 C.3     1  UNL1        0.0862
     30 N         145.6813  142.2624  162.6230 N.3     1  UNL1       -0.2951
     31 C         144.8680  141.9149  161.4114 C.3     1  UNL1        0.0862
     32 C         144.1101  140.6213  161.3627 C.3     1  UNL1        0.0895
     33 H         146.6414  142.3948  162.3050 H       1  UNL1        0.1233
@<TRIPOS>BOND
     1    20    21    1
     2    21     1    1
     3     1     2   ar
     4     2     3   ar
     5     3    23    1
     6    23    25    1
     7    25    26    1
     8    26    27    1
     9    27    28    1
    10    28    29    1
    11    29    30    1
    12    30    31    1
    13    31    32    1
    14     3     4   ar
    15     4     5   ar
    16     5     6   ar
    17     6    10    1
    18    10    11   ar
    19    11    12   ar
    20    12    13   ar
    21    13    16    1
    22    16    17    1
    23    16    18    1
    24    16    19    1
    25    13    14   ar
    26    14    15   ar
    27     6     7   ar
    28     7     8   ar
    29     8     9   ar
    30     9     1   ar
    31    32    27    1
    32     8     4   ar
    33    15    10   ar
    34    21    22    1
    35    23    24    1
    36    30    33    1
@<TRIPOS>MOLECULE
*****
 33 36 0 0 0
SMALL
GASTEIGER

@<TRIPOS>ATOM
      1 C         138.0598  140.8383  159.0255 C.ar    1  UNL1        0.2181
      2 N         138.4352  142.2851  159.1499 N.ar    1  UNL1       -0.1986
      3 C         138.8177  142.8486  160.4864 C.ar    1  UNL1        0.1389
      4 C         138.8247  141.9651  161.6986 C.ar    1  UNL1        0.0786
      5 S         139.1546  142.2365  163.1365 S.2     1  UNL1       -0.0826
      6 C         138.9830  140.9573  163.9008 C.ar    1  UNL1        0.0311
      7 C         138.5471  139.8953  162.9352 C.ar    1  UNL1        0.0263
      8 C         138.4493  140.5182  161.5742 C.ar    1  UNL1        0.0933
      9 N         138.0668  139.9548  160.2377 N.ar    1  UNL1       -0.2132
     10 C         139.2079  140.7724  165.3722 C.ar    1  UNL1        0.0060
     11 C         140.0431  141.7591  166.1331 C.ar    1  UNL1        0.0004
     12 C         140.2679  141.5742  167.6046 C.ar    1  UNL1        0.0039
     13 C         139.6575  140.4027  168.3153 C.ar    1  UNL1        0.0714
     14 C         138.8223  139.4160  167.5544 C.ar    1  UNL1        0.0039
     15 C         138.5975  139.6010  166.0829 C.ar    1  UNL1        0.0004
     16 C         139.8824  140.2179  169.7868 C.3     1  UNL1        0.4186
     17 F         140.1072  140.0331  171.2582 F       1  UNL1       -0.1659
     18 F         141.0993  139.3902  169.4968 F       1  UNL1       -0.1659
     19 F         138.6654  141.0456  170.0766 F       1  UNL1       -0.1659
     20 C         136.7702  141.0500  156.7801 C.3     1  UNL1        0.1108
     21 N         137.6773  140.2748  157.6890 N.pl3   1  UNL1       -0.3013
     22 H         138.0217  139.3962  157.4084 H       1  UNL1        0.1497
     23 N         139.1931  144.2956  160.6107 N.pl3   1  UNL1       -0.3164
     24 H         138.5880  144.9237  161.0674 H       1  UNL1        0.1483
     25 C         140.4905  144.7856  160.0392 C.3     1  UNL1        0.1057
     26 C         141.7280  143.9467  160.1612 C.3     1  UNL1        0.0936
     27 N         142.5455  143.9943  161.4180 N.3     1  UNL1       -0.2689
     28 C         143.8149  143.2014  161.5176 C.3     1  UNL1        0.0895
     29 C         144.6323  143.2491  162.7744 C.3     1  UNL1        0.0862
     30 N         144.1803  144.0896  163.9317 N.3     1  UNL1       -0.2951
     31 C         142.9109  144.8825  163.8322 C.3     1  UNL1        0.0862
     32 C         142.0935  144.8348  162.5753 C.3     1  UNL1        0.0895
     33 H         144.9292  144.7554  164.1223 H       1  UNL1        0.1233
@<TRIPOS>BOND
     1    20    21    1
     2    21     1    1
     3     1     2   ar
     4     2     3   ar
     5     3    23    1
     6    23    25    1
     7    25    26    1
     8    26    27    1
     9    27    28    1
    10    28    29    1
    11    29    30    1
    12    30    31    1
    13    31    32    1
    14     3     4   ar
    15     4     5   ar
    16     5     6   ar
    17     6    10    1
    18    10    11   ar
    19    11    12   ar
    20    12    13   ar
    21    13    16    1
    22    16    17    1
    23    16    18    1
    24    16    19    1
    25    13    14   ar
    26    14    15   ar
    27     6     7   ar
    28     7     8   ar
    29     8     9   ar
    30     9     1   ar
    31    32    27    1
    32     8     4   ar
    33    15    10   ar
    34    21    22    1
    35    23    24    1
    36    30    33    1
@<TRIPOS>MOLECULE
*****
 33 36 0 0 0
SMALL
GASTEIGER

@<TRIPOS>ATOM
      1 C         143.7028  141.6659  159.6769 C.ar    1  UNL1        0.2181
      2 N         143.2238  143.0743  159.8684 N.ar    1  UNL1       -0.1986
      3 C         142.5943  143.4824  161.1674 C.ar    1  UNL1        0.1389
      4 C         142.4439  142.4819  162.2748 C.ar    1  UNL1        0.0786
      5 S         141.8676  142.5918  163.6553 S.2     1  UNL1       -0.0826
      6 C         141.9904  141.2513  164.3169 C.ar    1  UNL1        0.0311
      7 C         142.6426  140.3128  163.3453 C.ar    1  UNL1        0.0263
      8 C         142.9228  141.0734  162.0832 C.ar    1  UNL1        0.0933
      9 N         143.5523  140.6654  160.7842 N.ar    1  UNL1       -0.2132
     10 C         141.5401  140.9092  165.7062 C.ar    1  UNL1        0.0060
     11 C         140.0772  140.7719  166.0080 C.ar    1  UNL1        0.0004
     12 C         139.6270  140.4297  167.3974 C.ar    1  UNL1        0.0039
     13 C         140.6396  140.2250  168.4849 C.ar    1  UNL1        0.0714
     14 C         142.1024  140.3623  168.1831 C.ar    1  UNL1        0.0039
     15 C         142.5527  140.7044  166.7937 C.ar    1  UNL1        0.0004
     16 C         140.1893  139.8829  169.8742 C.3     1  UNL1        0.4186
     17 F         139.7390  139.5408  171.2635 F       1  UNL1       -0.1659
     18 F         141.4712  139.1396  170.1067 F       1  UNL1       -0.1659
     19 F         138.9073  140.6262  169.6417 F       1  UNL1       -0.1659
     20 C         145.2329  142.2105  157.6490 C.3     1  UNL1        0.1108
     21 N         144.3323  141.2578  158.3779 N.pl3   1  UNL1       -0.3013
     22 H         144.1544  140.3647  158.0037 H       1  UNL1        0.1497
     23 N         142.1154  144.8909  161.3589 N.pl3   1  UNL1       -0.3164
     24 H         142.7131  145.5643  161.7572 H       1  UNL1        0.1483
     25 C         140.7258  145.2736  160.9435 C.3     1  UNL1        0.1057
     26 C         139.6910  145.5850  161.9838 C.3     1  UNL1        0.0936
     27 N         138.9124  144.4738  162.6234 N.3     1  UNL1       -0.2689
     28 C         138.5075  143.2784  161.8127 C.3     1  UNL1        0.0895
     29 C         137.7289  142.1673  162.4523 C.3     1  UNL1        0.0862
     30 N         137.3552  142.2514  163.9025 N.3     1  UNL1       -0.2951
     31 C         137.7601  143.4467  164.7133 C.3     1  UNL1        0.0862
     32 C         138.5388  144.5579  164.0736 C.3     1  UNL1        0.0895
     33 H         137.7613  141.4346  164.3591 H       1  UNL1        0.1233
@<TRIPOS>BOND
     1    20    21    1
     2    21     1    1
     3     1     2   ar
     4     2     3   ar
     5     3    23    1
     6    23    25    1
     7    25    26    1
     8    26    27    1
     9    27    28    1
    10    28    29    1
    11    29    30    1
    12    30    31    1
    13    31    32    1
    14     3     4   ar
    15     4     5   ar
    16     5     6   ar
    17     6    10    1
    18    10    11   ar
    19    11    12   ar
    20    12    13   ar
    21    13    16    1
    22    16    17    1
    23    16    18    1
    24    16    19    1
    25    13    14   ar
    26    14    15   ar
    27     6     7   ar
    28     7     8   ar
    29     8     9   ar
    30     9     1   ar
    31    32    27    1
    32     8     4   ar
    33    15    10   ar
    34    21    22    1
    35    23    24    1
    36    30    33    1
@<TRIPOS>MOLECULE
*****
 33 36 0 0 0
SMALL
GASTEIGER

@<TRIPOS>ATOM
      1 C         141.2969  144.8748  159.9855 C.ar    1  UNL1        0.2181
      2 N         139.9441  144.2271  159.9715 N.ar    1  UNL1       -0.1986
      3 C         139.4380  143.5210  161.1944 C.ar    1  UNL1        0.1389
      4 C         140.2848  143.4627  162.4311 C.ar    1  UNL1        0.0786
      5 S         140.0538  142.8428  163.7774 S.2     1  UNL1       -0.0826
      6 C         141.2639  143.1075  164.6233 C.ar    1  UNL1        0.0311
      7 C         142.2428  143.8909  163.7999 C.ar    1  UNL1        0.0263
      8 C         141.6376  144.1105  162.4450 C.ar    1  UNL1        0.0933
      9 N         142.1437  144.8165  161.2222 N.ar    1  UNL1       -0.2132
     10 C         141.4606  142.6662  166.0434 C.ar    1  UNL1        0.0060
     11 C         140.3458  142.8141  167.0360 C.ar    1  UNL1        0.0004
     12 C         140.5426  142.3728  168.4561 C.ar    1  UNL1        0.0039
     13 C         141.8542  141.7836  168.8835 C.ar    1  UNL1        0.0714
     14 C         142.9689  141.6356  167.8908 C.ar    1  UNL1        0.0039
     15 C         142.7721  142.0770  166.4708 C.ar    1  UNL1        0.0004
     16 C         142.0509  141.3423  170.3035 C.3     1  UNL1        0.4186
     17 F         142.2476  140.9010  171.7235 F       1  UNL1       -0.1659
     18 F         143.5285  141.2395  170.0669 F       1  UNL1       -0.1659
     19 F         140.5732  141.4451  170.5401 F       1  UNL1       -0.1659
     20 C         140.8627  145.9022  157.6390 C.3     1  UNL1        0.1108
     21 N         141.8031  145.5809  158.7626 N.pl3   1  UNL1       -0.3013
     22 H         142.7524  145.8335  158.6975 H       1  UNL1        0.1497
     23 N         138.0851  142.8733  161.1805 N.pl3   1  UNL1       -0.3164
     24 H         137.2816  143.4073  161.3767 H       1  UNL1        0.1483
     25 C         137.9564  141.4120  160.8675 C.3     1  UNL1        0.1057
     26 C         138.0031  140.4010  161.9746 C.3     1  UNL1        0.0936
     27 N         139.1153  139.3959  162.0260 N.3     1  UNL1       -0.2689
     28 C         140.1822  139.4031  160.9715 C.3     1  UNL1        0.0895
     29 C         141.2944  138.3980  161.0231 C.3     1  UNL1        0.0862
     30 N         141.3399  137.3857  162.1290 N.3     1  UNL1       -0.2951
     31 C         140.2731  137.3784  163.1835 C.3     1  UNL1        0.0862
     32 C         139.1609  138.3836  163.1320 C.3     1  UNL1        0.0895
     33 H         142.2294  137.5158  162.6109 H       1  UNL1        0.1233
@<TRIPOS>BOND
     1    20    21    1
     2    21     1    1
     3     1     2   ar
     4     2     3   ar
     5     3    23    1
     6    23    25    1
     7    25    26    1
     8    26    27    1
     9    27    28    1
    10    28    29    1
    11    29    30    1
    12    30    31    1
    13    31    32    1
    14     3     4   ar
    15     4     5   ar
    16     5     6   ar
    17     6    10    1
    18    10    11   ar
    19    11    12   ar
    20    12    13   ar
    21    13    16    1
    22    16    17    1
    23    16    18    1
    24    16    19    1
    25    13    14   ar
    26    14    15   ar
    27     6     7   ar
    28     7     8   ar
    29     8     9   ar
    30     9     1   ar
    31    32    27    1
    32     8     4   ar
    33    15    10   ar
    34    21    22    1
    35    23    24    1
    36    30    33    1
@<TRIPOS>MOLECULE
*****
 33 36 0 0 0
SMALL
GASTEIGER

@<TRIPOS>ATOM
      1 C         143.3342  143.2359  159.5482 C.ar    1  UNL1        0.2181
      2 N         143.9453  141.8731  159.6864 N.ar    1  UNL1       -0.1986
      3 C         143.9394  141.1798  161.0166 C.ar    1  UNL1        0.1389
      4 C         143.3224  141.8495  162.2086 C.ar    1  UNL1        0.0786
      5 S         143.1692  141.4153  163.6362 S.2     1  UNL1       -0.0826
      6 C         142.4634  142.5099  164.3803 C.ar    1  UNL1        0.0311
      7 C         142.1804  143.6206  163.4126 C.ar    1  UNL1        0.0263
      8 C         142.7113  143.2124  162.0704 C.ar    1  UNL1        0.0933
      9 N         142.7172  143.9056  160.7402 N.ar    1  UNL1       -0.2132
     10 C         142.1037  142.4964  165.8365 C.ar    1  UNL1        0.0060
     11 C         143.1530  142.1959  166.8654 C.ar    1  UNL1        0.0004
     12 C         142.7933  142.1824  168.3216 C.ar    1  UNL1        0.0039
     13 C         141.3843  142.4692  168.7489 C.ar    1  UNL1        0.0714
     14 C         140.3350  142.7696  167.7199 C.ar    1  UNL1        0.0039
     15 C         140.6948  142.7832  166.2637 C.ar    1  UNL1        0.0004
     16 C         141.0247  142.4556  170.2051 C.3     1  UNL1        0.4186
     17 F         140.6651  142.4420  171.6612 F       1  UNL1       -0.1659
     18 F         139.6108  142.0997  169.8525 F       1  UNL1       -0.1659
     19 F         142.4386  142.8115  170.5575 F       1  UNL1       -0.1659
     20 C         142.8297  143.2185  156.9997 C.3     1  UNL1        0.1108
     21 N         143.3401  143.9292  158.2180 N.pl3   1  UNL1       -0.3013
     22 H         143.6790  144.8506  158.1446 H       1  UNL1        0.1497
     23 N         144.5505  139.8169  161.1547 N.pl3   1  UNL1       -0.3164
     24 H         145.4996  139.7255  161.3997 H       1  UNL1        0.1483
     25 C         143.7154  138.5932  160.9197 C.3     1  UNL1        0.1057
     26 C         142.9467  137.9809  162.0529 C.3     1  UNL1        0.0936
     27 N         141.4475  137.9521  162.0131 N.3     1  UNL1       -0.2689
     28 C         140.6725  137.5452  163.2313 C.3     1  UNL1        0.0895
     29 C         139.1733  137.5164  163.1914 C.3     1  UNL1        0.0862
     30 N         138.4491  137.8945  161.9334 N.3     1  UNL1       -0.2951
     31 C         139.2240  138.3014  160.7152 C.3     1  UNL1        0.0862
     32 C         140.7233  138.3302  160.7552 C.3     1  UNL1        0.0895
     33 H         137.8386  138.6769  162.1690 H       1  UNL1        0.1233
@<TRIPOS>BOND
     1    20    21    1
     2    21     1    1
     3     1     2   ar
     4     2     3   ar
     5     3    23    1
     6    23    25    1
     7    25    26    1
     8    26    27    1
     9    27    28    1
    10    28    29    1
    11    29    30    1
    12    30    31    1
    13    31    32    1
    14     3     4   ar
    15     4     5   ar
    16     5     6   ar
    17     6    10    1
    18    10    11   ar
    19    11    12   ar
    20    12    13   ar
    21    13    16    1
    22    16    17    1
    23    16    18    1
    24    16    19    1
    25    13    14   ar
    26    14    15   ar
    27     6     7   ar
    28     7     8   ar
    29     8     9   ar
    30     9     1   ar
    31    32    27    1
    32     8     4   ar
    33    15    10   ar
    34    21    22    1
    35    23    24    1
    36    30    33    1
@<TRIPOS>MOLECULE
*****
 33 36 0 0 0
SMALL
GASTEIGER

@<TRIPOS>ATOM
      1 C         138.3262  140.4395  159.6088 C.ar    1  UNL1        0.2181
      2 N         139.8084  140.5600  159.4129 N.ar    1  UNL1       -0.1986
      3 C         140.7059  140.7788  160.5948 C.ar    1  UNL1        0.1389
      4 C         140.1210  140.8771  161.9725 C.ar    1  UNL1        0.0786
      5 S         140.7507  141.0885  163.3174 S.2     1  UNL1       -0.0826
      6 C         139.6576  141.0986  164.3445 C.ar    1  UNL1        0.0311
      7 C         138.3523  140.8935  163.6344 C.ar    1  UNL1        0.0263
      8 C         138.6387  140.7566  162.1684 C.ar    1  UNL1        0.0933
      9 N         137.7413  140.5378  160.9866 N.ar    1  UNL1       -0.2132
     10 C         139.8380  141.2817  165.8224 C.ar    1  UNL1        0.0060
     11 C         139.4686  140.1756  166.7658 C.ar    1  UNL1        0.0004
     12 C         139.6491  140.3588  168.2436 C.ar    1  UNL1        0.0039
     13 C         140.1989  141.6480  168.7780 C.ar    1  UNL1        0.0714
     14 C         140.5683  142.7541  167.8346 C.ar    1  UNL1        0.0039
     15 C         140.3878  142.5709  166.3568 C.ar    1  UNL1        0.0004
     16 C         140.3793  141.8311  170.2558 C.3     1  UNL1        0.4186
     17 F         140.5598  142.0142  171.7335 F       1  UNL1       -0.1659
     18 F         139.6968  143.1643  170.1740 F       1  UNL1       -0.1659
     19 F         141.0619  140.4979  170.3376 F       1  UNL1       -0.1659
     20 C         137.3923  141.2282  157.3163 C.3     1  UNL1        0.1108
     21 N         137.4287  140.2207  158.4269 N.pl3   1  UNL1       -0.3013
     22 H         136.8637  139.4158  158.3803 H       1  UNL1        0.1497
     23 N         142.1882  140.8993  160.3988 N.pl3   1  UNL1       -0.3164
     24 H         142.7934  140.2346  160.8002 H       1  UNL1        0.1483
     25 C         142.7483  142.0324  159.5912 C.3     1  UNL1        0.1057
     26 C         143.3786  143.2055  160.2814 C.3     1  UNL1        0.0936
     27 N         142.5440  144.1054  161.1438 N.3     1  UNL1       -0.2689
     28 C         142.9300  144.3435  162.5736 C.3     1  UNL1        0.0895
     29 C         142.0955  145.2434  163.4359 C.3     1  UNL1        0.0862
     30 N         140.8749  145.9054  162.8685 N.3     1  UNL1       -0.2951
     31 C         140.4888  145.6673  161.4387 C.3     1  UNL1        0.0862
     32 C         141.3234  144.7674  160.5764 C.3     1  UNL1        0.0895
     33 H         141.0095  146.9110  162.9736 H       1  UNL1        0.1233
@<TRIPOS>BOND
     1    20    21    1
     2    21     1    1
     3     1     2   ar
     4     2     3   ar
     5     3    23    1
     6    23    25    1
     7    25    26    1
     8    26    27    1
     9    27    28    1
    10    28    29    1
    11    29    30    1
    12    30    31    1
    13    31    32    1
    14     3     4   ar
    15     4     5   ar
    16     5     6   ar
    17     6    10    1
    18    10    11   ar
    19    11    12   ar
    20    12    13   ar
    21    13    16    1
    22    16    17    1
    23    16    18    1
    24    16    19    1
    25    13    14   ar
    26    14    15   ar
    27     6     7   ar
    28     7     8   ar
    29     8     9   ar
    30     9     1   ar
    31    32    27    1
    32     8     4   ar
    33    15    10   ar
    34    21    22    1
    35    23    24    1
    36    30    33    1
@<TRIPOS>MOLECULE
*****
 33 36 0 0 0
SMALL
GASTEIGER

@<TRIPOS>ATOM
      1 C         142.9699  138.3845  158.4113 C.ar    1  UNL1        0.2181
      2 N         143.7223  139.6521  158.6884 N.ar    1  UNL1       -0.1986
      3 C         143.5323  140.3671  159.9933 C.ar    1  UNL1        0.1389
      4 C         142.5899  139.8144  161.0211 C.ar    1  UNL1        0.0786
      5 S         142.2006  140.2952  162.3875 S.2     1  UNL1       -0.0826
      6 C         141.2076  139.3246  162.9549 C.ar    1  UNL1        0.0311
      7 C         140.9831  138.2440  161.9391 C.ar    1  UNL1        0.0263
      8 C         141.8374  138.5467  160.7439 C.ar    1  UNL1        0.0933
      9 N         142.0275  137.8317  159.4390 N.ar    1  UNL1       -0.2132
     10 C         140.5537  139.4183  164.3017 C.ar    1  UNL1        0.0060
     11 C         141.3588  139.8273  165.4994 C.ar    1  UNL1        0.0004
     12 C         140.7048  139.9209  166.8462 C.ar    1  UNL1        0.0039
     13 C         139.2460  139.6055  166.9952 C.ar    1  UNL1        0.0714
     14 C         138.4409  139.1965  165.7974 C.ar    1  UNL1        0.0039
     15 C         139.0949  139.1029  164.4507 C.ar    1  UNL1        0.0004
     16 C         138.5921  139.6991  168.3419 C.3     1  UNL1        0.4186
     17 F         137.9383  139.7928  169.6886 F       1  UNL1       -0.1659
     18 F         139.6902  140.6066  168.8119 F       1  UNL1       -0.1659
     19 F         137.4941  138.7917  167.8718 F       1  UNL1       -0.1659
     20 C         142.7820  136.2232  156.9818 C.3     1  UNL1        0.1108
     21 N         143.1599  137.6695  157.1064 N.pl3   1  UNL1       -0.3013
     22 H         143.5325  138.1494  156.3318 H       1  UNL1        0.1497
     23 N         144.2848  141.6349  160.2704 N.pl3   1  UNL1       -0.3164
     24 H         145.1526  141.6009  160.7339 H       1  UNL1        0.1483
     25 C         143.7149  142.9543  159.8412 C.3     1  UNL1        0.1057
     26 C         142.2360  143.1932  159.9181 C.3     1  UNL1        0.0936
     27 N         141.6861  144.1810  160.9039 N.3     1  UNL1       -0.2689
     28 C         142.3150  144.3180  162.2589 C.3     1  UNL1        0.0895
     29 C         141.7650  145.3058  163.2445 C.3     1  UNL1        0.0862
     30 N         140.5862  146.1567  162.8754 N.3     1  UNL1       -0.2951
     31 C         139.9573  146.0198  161.5205 C.3     1  UNL1        0.0862
     32 C         140.5073  145.0319  160.5348 C.3     1  UNL1        0.0895
     33 H         140.8846  147.1280  162.9647 H       1  UNL1        0.1233
@<TRIPOS>BOND
     1    20    21    1
     2    21     1    1
     3     1     2   ar
     4     2     3   ar
     5     3    23    1
     6    23    25    1
     7    25    26    1
     8    26    27    1
     9    27    28    1
    10    28    29    1
    11    29    30    1
    12    30    31    1
    13    31    32    1
    14     3     4   ar
    15     4     5   ar
    16     5     6   ar
    17     6    10    1
    18    10    11   ar
    19    11    12   ar
    20    12    13   ar
    21    13    16    1
    22    16    17    1
    23    16    18    1
    24    16    19    1
    25    13    14   ar
    26    14    15   ar
    27     6     7   ar
    28     7     8   ar
    29     8     9   ar
    30     9     1   ar
    31    32    27    1
    32     8     4   ar
    33    15    10   ar
    34    21    22    1
    35    23    24    1
    36    30    33    1
