@<TRIPOS>MOLECULE
*****
 26 30 0 0 0
SMALL
GASTEIGER

@<TRIPOS>ATOM
      1 C         139.2253  140.2207  168.0675 C.ar    1  UNL1       -0.0207
      2 C         139.9753  141.3306  167.3925 C.ar    1  UNL1       -0.0027
      3 C         140.3328  141.2191  165.9400 C.ar    1  UNL1        0.0188
      4 C         139.9404  139.9979  165.1626 C.ar    1  UNL1        0.0813
      5 N         140.2980  139.8865  163.7100 N.ar    1  UNL1       -0.2438
      6 C         139.9056  138.6652  162.9325 C.ar    1  UNL1        0.1004
      7 C         139.1556  137.5553  163.6076 C.ar    1  UNL1        0.0207
      8 C         138.7980  137.6667  165.0601 C.ar    1  UNL1        0.0031
      9 C         139.1905  138.8880  165.8375 C.ar    1  UNL1        0.0174
     10 C         138.8329  138.9994  167.2900 C.ar    1  UNL1       -0.0027
     11 C         140.2632  138.5538  161.4801 C.ar    1  UNL1        0.1181
     12 C         139.2950  138.4882  160.3363 C.ar    1  UNL1        0.0983
     13 N         140.0851  138.3823  159.0657 N.ar    1  UNL1       -0.3044
     14 C         141.5417  138.3824  159.4242 C.ar    1  UNL1        0.1714
     15 N         141.6517  138.4884  160.9164 N.ar    1  UNL1       -0.2195
     16 S         142.3318  138.2765  158.1536 S.3     1  UNL1       -0.0753
     17 C         141.3636  138.2109  157.0098 C.3     1  UNL1        0.0896
     18 C         139.9751  138.2763  157.5735 C.3     1  UNL1        0.1201
     19 C         138.8677  140.3321  169.5200 C.3     1  UNL1        0.0437
     20 C         139.9449  140.2903  170.5629 C.3     1  UNL1        0.0768
     21 C         142.7176  139.1322  169.2899 C.3     1  UNL1        0.0173
     22 C         142.4883  140.5323  169.7768 C.3     1  UNL1        0.0576
     23 C         143.4932  141.6459  169.7641 C.3     1  UNL1        0.0174
     24 C         142.8398  142.8665  170.3414 C.3     1  UNL1        0.0187
     25 C         141.4310  142.5073  170.7109 C.3     1  UNL1        0.0721
     26 N         141.2139  141.0647  170.3620 N.3     1  UNL1       -0.2737
@<TRIPOS>BOND
     1    22    21    1
     2    22    23    1
     3    23    24    1
     4    24    25    1
     5    25    26    1
     6    26    20    1
     7    20    19    1
     8    19     1    1
     9     1     2   ar
    10     2     3   ar
    11     3     4   ar
    12     4     5   ar
    13     5     6   ar
    14     6    11    1
    15    11    12   ar
    16    12    13   ar
    17    13    14   ar
    18    14    15   ar
    19    14    16    1
    20    16    17    1
    21    17    18    1
    22     6     7   ar
    23     7     8   ar
    24     8     9   ar
    25     9    10   ar
    26    26    22    1
    27    10     1   ar
    28     9     4   ar
    29    15    11   ar
    30    18    13    1
@<TRIPOS>MOLECULE
*****
 26 30 0 0 0
SMALL
GASTEIGER

@<TRIPOS>ATOM
      1 C         139.3344  137.6655  164.6007 C.ar    1  UNL1       -0.0207
      2 C         140.8206  137.5042  164.7242 C.ar    1  UNL1       -0.0027
      3 C         141.6939  137.6493  163.5133 C.ar    1  UNL1        0.0188
      4 C         141.0810  137.9556  162.1790 C.ar    1  UNL1        0.0813
      5 N         141.9544  138.1007  160.9680 N.ar    1  UNL1       -0.2438
      6 C         141.3416  138.4070  159.6337 C.ar    1  UNL1        0.1004
      7 C         139.8553  138.5683  159.5102 C.ar    1  UNL1        0.0207
      8 C         138.9820  138.4232  160.7211 C.ar    1  UNL1        0.0031
      9 C         139.5949  138.1169  162.0554 C.ar    1  UNL1        0.0174
     10 C         138.7216  137.9718  163.2663 C.ar    1  UNL1       -0.0027
     11 C         142.2149  138.5521  158.4228 C.ar    1  UNL1        0.1181
     12 C         142.6395  137.4449  157.5043 C.ar    1  UNL1        0.0983
     13 N         143.5040  138.0384  156.4316 N.ar    1  UNL1       -0.3044
     14 C         143.6136  139.5124  156.6872 C.ar    1  UNL1        0.1714
     15 N         142.8168  139.8299  157.9178 N.ar    1  UNL1       -0.2195
     16 S         144.4780  140.1059  155.6146 S.3     1  UNL1       -0.0753
     17 C         144.9027  138.9986  154.6960 C.3     1  UNL1        0.0896
     18 C         144.3007  137.7209  155.2010 C.3     1  UNL1        0.1201
     19 C         138.4611  137.5204  165.8116 C.3     1  UNL1        0.0437
     20 C         138.0429  138.7358  166.5847 C.3     1  UNL1        0.0768
     21 C         138.3666  141.3264  164.6268 C.3     1  UNL1        0.0173
     22 C         139.1537  141.0616  165.8759 C.3     1  UNL1        0.0576
     23 C         140.2277  141.9409  166.4443 C.3     1  UNL1        0.0174
     24 C         140.7428  141.2936  167.6957 C.3     1  UNL1        0.0187
     25 C         139.9870  140.0142  167.9006 C.3     1  UNL1        0.0721
     26 N         139.0049  139.8708  166.7758 N.3     1  UNL1       -0.2737
@<TRIPOS>BOND
     1    22    21    1
     2    22    23    1
     3    23    24    1
     4    24    25    1
     5    25    26    1
     6    26    20    1
     7    20    19    1
     8    19     1    1
     9     1     2   ar
    10     2     3   ar
    11     3     4   ar
    12     4     5   ar
    13     5     6   ar
    14     6    11    1
    15    11    12   ar
    16    12    13   ar
    17    13    14   ar
    18    14    15   ar
    19    14    16    1
    20    16    17    1
    21    17    18    1
    22     6     7   ar
    23     7     8   ar
    24     8     9   ar
    25     9    10   ar
    26    26    22    1
    27    10     1   ar
    28     9     4   ar
    29    15    11   ar
    30    18    13    1
@<TRIPOS>MOLECULE
*****
 26 30 0 0 0
SMALL
GASTEIGER

@<TRIPOS>ATOM
      1 C         139.5080  140.4358  166.7289 C.ar    1  UNL1       -0.0207
      2 C         139.2003  139.5479  165.5597 C.ar    1  UNL1       -0.0027
      3 C         139.3304  140.0764  164.1620 C.ar    1  UNL1        0.0188
      4 C         139.7682  141.4928  163.9334 C.ar    1  UNL1        0.0813
      5 N         139.8983  142.0213  162.5356 N.ar    1  UNL1       -0.2438
      6 C         140.3360  143.4377  162.3070 C.ar    1  UNL1        0.1004
      7 C         140.6436  144.3256  163.4763 C.ar    1  UNL1        0.0207
      8 C         140.5135  143.7971  164.8740 C.ar    1  UNL1        0.0031
      9 C         140.0758  142.3807  165.1026 C.ar    1  UNL1        0.0174
     10 C         139.9457  141.8522  166.5003 C.ar    1  UNL1       -0.0027
     11 C         140.4661  143.9662  160.9093 C.ar    1  UNL1        0.1181
     12 C         141.5725  144.8396  160.3964 C.ar    1  UNL1        0.0983
     13 N         141.3029  145.1273  158.9491 N.ar    1  UNL1       -0.3044
     14 C         140.0298  144.4317  158.5676 C.ar    1  UNL1        0.1714
     15 N         139.5127  143.7142  159.7790 N.ar    1  UNL1       -0.2195
     16 S         139.7602  144.7195  157.1203 S.3     1  UNL1       -0.0753
     17 C         140.8666  145.5928  156.6074 C.3     1  UNL1        0.0896
     18 C         141.8200  145.8449  157.7377 C.3     1  UNL1        0.1201
     19 C         139.3779  139.9073  168.1267 C.3     1  UNL1        0.0437
     20 C         139.6272  140.8120  169.2968 C.3     1  UNL1        0.0768
     21 C         140.4446  143.9212  169.8571 C.3     1  UNL1        0.0173
     22 C         141.3864  142.7543  169.8243 C.3     1  UNL1        0.0576
     23 C         142.8692  142.8115  170.0432 C.3     1  UNL1        0.0174
     24 C         143.4100  141.4177  169.9209 C.3     1  UNL1        0.0187
     25 C         142.2613  140.4990  169.6264 C.3     1  UNL1        0.0721
     26 N         141.0107  141.3251  169.5667 N.3     1  UNL1       -0.2737
@<TRIPOS>BOND
     1    22    21    1
     2    22    23    1
     3    23    24    1
     4    24    25    1
     5    25    26    1
     6    26    20    1
     7    20    19    1
     8    19     1    1
     9     1     2   ar
    10     2     3   ar
    11     3     4   ar
    12     4     5   ar
    13     5     6   ar
    14     6    11    1
    15    11    12   ar
    16    12    13   ar
    17    13    14   ar
    18    14    15   ar
    19    14    16    1
    20    16    17    1
    21    17    18    1
    22     6     7   ar
    23     7     8   ar
    24     8     9   ar
    25     9    10   ar
    26    26    22    1
    27    10     1   ar
    28     9     4   ar
    29    15    11   ar
    30    18    13    1
@<TRIPOS>MOLECULE
*****
 26 30 0 0 0
SMALL
GASTEIGER

@<TRIPOS>ATOM
      1 C         142.7343  138.4600  165.3414 C.ar    1  UNL1       -0.0207
      2 C         141.5600  137.5960  164.9885 C.ar    1  UNL1       -0.0027
      3 C         141.2362  137.3218  163.5498 C.ar    1  UNL1        0.0188
      4 C         142.0867  137.9116  162.4640 C.ar    1  UNL1        0.0813
      5 N         141.7628  137.6374  161.0253 N.ar    1  UNL1       -0.2438
      6 C         142.6133  138.2271  159.9395 C.ar    1  UNL1        0.1004
      7 C         143.7876  139.0912  160.2925 C.ar    1  UNL1        0.0207
      8 C         144.1114  139.3654  161.7312 C.ar    1  UNL1        0.0031
      9 C         143.2609  138.7756  162.8170 C.ar    1  UNL1        0.0174
     10 C         143.5847  139.0498  164.2557 C.ar    1  UNL1       -0.0027
     11 C         142.2895  137.9529  158.5008 C.ar    1  UNL1        0.1181
     12 C         141.0296  138.3491  157.7896 C.ar    1  UNL1        0.0983
     13 N         141.1302  137.8754  156.3700 N.ar    1  UNL1       -0.3044
     14 C         142.4522  137.1865  156.2037 C.ar    1  UNL1        0.1714
     15 N         143.1687  137.2344  157.5206 N.ar    1  UNL1       -0.2195
     16 S         142.5528  136.7129  154.7840 S.3     1  UNL1       -0.0753
     17 C         141.2929  137.1090  154.0728 C.3     1  UNL1        0.0896
     18 C         140.4137  137.8275  155.0530 C.3     1  UNL1        0.1201
     19 C         143.0581  138.7343  166.7802 C.3     1  UNL1        0.0437
     20 C         142.6505  140.0351  167.4059 C.3     1  UNL1        0.0768
     21 C         139.4849  140.2521  166.6434 C.3     1  UNL1        0.0173
     22 C         140.0547  140.1740  168.0287 C.3     1  UNL1        0.0576
     23 C         139.2695  140.1820  169.3068 C.3     1  UNL1        0.0174
     24 C         140.2393  140.0873  170.4472 C.3     1  UNL1        0.0187
     25 C         141.6239  140.0207  169.8739 C.3     1  UNL1        0.0721
     26 N         141.5097  140.0743  168.3793 N.3     1  UNL1       -0.2737
@<TRIPOS>BOND
     1    22    21    1
     2    22    23    1
     3    23    24    1
     4    24    25    1
     5    25    26    1
     6    26    20    1
     7    20    19    1
     8    19     1    1
     9     1     2   ar
    10     2     3   ar
    11     3     4   ar
    12     4     5   ar
    13     5     6   ar
    14     6    11    1
    15    11    12   ar
    16    12    13   ar
    17    13    14   ar
    18    14    15   ar
    19    14    16    1
    20    16    17    1
    21    17    18    1
    22     6     7   ar
    23     7     8   ar
    24     8     9   ar
    25     9    10   ar
    26    26    22    1
    27    10     1   ar
    28     9     4   ar
    29    15    11   ar
    30    18    13    1
@<TRIPOS>MOLECULE
*****
 26 30 0 0 0
SMALL
GASTEIGER

@<TRIPOS>ATOM
      1 C         138.5579  139.3227  165.6526 C.ar    1  UNL1       -0.0207
      2 C         138.8627  138.0154  164.9833 C.ar    1  UNL1       -0.0027
      3 C         138.8935  137.9285  163.4862 C.ar    1  UNL1        0.0188
      4 C         138.6194  139.1490  162.6583 C.ar    1  UNL1        0.0813
      5 N         138.6501  139.0621  161.1611 N.ar    1  UNL1       -0.2438
      6 C         138.3760  140.2826  160.3333 C.ar    1  UNL1        0.1004
      7 C         138.0712  141.5899  161.0026 C.ar    1  UNL1        0.0207
      8 C         138.0405  141.6768  162.4998 C.ar    1  UNL1        0.0031
      9 C         138.3145  140.4563  163.3276 C.ar    1  UNL1        0.0174
     10 C         138.2838  140.5431  164.8248 C.ar    1  UNL1       -0.0027
     11 C         138.4067  140.1957  158.8361 C.ar    1  UNL1        0.1181
     12 C         139.5589  139.7156  158.0043 C.ar    1  UNL1        0.0983
     13 N         139.1550  139.7969  156.5620 N.ar    1  UNL1       -0.3044
     14 C         137.7531  140.3273  156.5024 C.ar    1  UNL1        0.1714
     15 N         137.2907  140.5738  157.9079 N.ar    1  UNL1       -0.2195
     16 S         137.3491  140.4086  155.0601 S.3     1  UNL1       -0.0753
     17 C         138.5013  139.9285  154.2283 C.3     1  UNL1        0.0896
     18 C         139.6173  139.5504  155.1565 C.3     1  UNL1        0.1201
     19 C         138.5272  139.4096  167.1498 C.3     1  UNL1        0.0437
     20 C         139.7833  139.7188  167.9091 C.3     1  UNL1        0.0768
     21 C         140.9404  142.5125  166.6822 C.3     1  UNL1        0.0173
     22 C         140.4452  142.3028  168.0824 C.3     1  UNL1        0.0576
     23 C         140.3949  143.3403  169.1646 C.3     1  UNL1        0.0174
     24 C         139.8319  142.6973  170.3974 C.3     1  UNL1        0.0187
     25 C         139.5342  141.2624  170.0771 C.3     1  UNL1        0.0721
     26 N         139.9133  141.0186  168.6464 N.3     1  UNL1       -0.2737
@<TRIPOS>BOND
     1    22    21    1
     2    22    23    1
     3    23    24    1
     4    24    25    1
     5    25    26    1
     6    26    20    1
     7    20    19    1
     8    19     1    1
     9     1     2   ar
    10     2     3   ar
    11     3     4   ar
    12     4     5   ar
    13     5     6   ar
    14     6    11    1
    15    11    12   ar
    16    12    13   ar
    17    13    14   ar
    18    14    15   ar
    19    14    16    1
    20    16    17    1
    21    17    18    1
    22     6     7   ar
    23     7     8   ar
    24     8     9   ar
    25     9    10   ar
    26    26    22    1
    27    10     1   ar
    28     9     4   ar
    29    15    11   ar
    30    18    13    1
@<TRIPOS>MOLECULE
*****
 26 30 0 0 0
SMALL
GASTEIGER

@<TRIPOS>ATOM
      1 C         139.3775  137.7101  163.9765 C.ar    1  UNL1       -0.0207
      2 C         138.4648  137.8924  162.8003 C.ar    1  UNL1       -0.0027
      3 C         139.0379  138.1690  161.4420 C.ar    1  UNL1        0.0188
      4 C         140.5239  138.2632  161.2600 C.ar    1  UNL1        0.0813
      5 N         141.0970  138.5397  159.9016 N.ar    1  UNL1       -0.2438
      6 C         142.5829  138.6340  159.7196 C.ar    1  UNL1        0.1004
      7 C         143.4957  138.4517  160.8959 C.ar    1  UNL1        0.0207
      8 C         142.9226  138.1752  162.2542 C.ar    1  UNL1        0.0031
      9 C         141.4366  138.0809  162.4362 C.ar    1  UNL1        0.0174
     10 C         140.8635  137.8044  163.7945 C.ar    1  UNL1       -0.0027
     11 C         143.1561  138.9105  158.3613 C.ar    1  UNL1        0.1181
     12 C         142.8180  138.1791  157.0961 C.ar    1  UNL1        0.0983
     13 N         143.6209  138.7835  155.9826 N.ar    1  UNL1       -0.3044
     14 C         144.4553  139.8886  156.5596 C.ar    1  UNL1        0.1714
     15 N         144.1680  139.9670  158.0297 N.ar    1  UNL1       -0.2195
     16 S         145.2582  140.4930  155.4460 S.3     1  UNL1       -0.0753
     17 C         144.9201  139.7616  154.1808 C.3     1  UNL1        0.0896
     18 C         143.9082  138.7051  154.5124 C.3     1  UNL1        0.1201
     19 C         138.8044  137.4336  165.3349 C.3     1  UNL1        0.0437
     20 C         138.2354  138.5558  166.1515 C.3     1  UNL1        0.0768
     21 C         138.1408  141.2624  164.3309 C.3     1  UNL1        0.0173
     22 C         138.9973  141.0446  165.5429 C.3     1  UNL1        0.0576
     23 C         139.9606  142.0327  166.1309 C.3     1  UNL1        0.0174
     24 C         140.5995  141.3993  167.3312 C.3     1  UNL1        0.0187
     25 C         140.0309  140.0197  167.4850 C.3     1  UNL1        0.0721
     26 N         139.0407  139.8006  166.3798 N.3     1  UNL1       -0.2737
@<TRIPOS>BOND
     1    22    21    1
     2    22    23    1
     3    23    24    1
     4    24    25    1
     5    25    26    1
     6    26    20    1
     7    20    19    1
     8    19     1    1
     9     1     2   ar
    10     2     3   ar
    11     3     4   ar
    12     4     5   ar
    13     5     6   ar
    14     6    11    1
    15    11    12   ar
    16    12    13   ar
    17    13    14   ar
    18    14    15   ar
    19    14    16    1
    20    16    17    1
    21    17    18    1
    22     6     7   ar
    23     7     8   ar
    24     8     9   ar
    25     9    10   ar
    26    26    22    1
    27    10     1   ar
    28     9     4   ar
    29    15    11   ar
    30    18    13    1
@<TRIPOS>MOLECULE
*****
 26 30 0 0 0
SMALL
GASTEIGER

@<TRIPOS>ATOM
      1 C         142.8289  138.4811  165.4009 C.ar    1  UNL1       -0.0207
      2 C         141.6472  137.6231  165.0585 C.ar    1  UNL1       -0.0027
      3 C         141.3033  137.3586  163.6227 C.ar    1  UNL1        0.0188
      4 C         142.1413  137.9521  162.5292 C.ar    1  UNL1        0.0813
      5 N         141.7974  137.6876  161.0933 N.ar    1  UNL1       -0.2438
      6 C         142.6353  138.2810  159.9998 C.ar    1  UNL1        0.1004
      7 C         143.8171  139.1391  160.3423 C.ar    1  UNL1        0.0207
      8 C         144.1609  139.4036  161.7781 C.ar    1  UNL1        0.0031
      9 C         143.3230  138.8101  162.8716 C.ar    1  UNL1        0.0174
     10 C         143.6668  139.0746  164.3075 C.ar    1  UNL1       -0.0027
     11 C         142.2915  138.0165  158.5639 C.ar    1  UNL1        0.1181
     12 C         141.0211  138.4158  157.8736 C.ar    1  UNL1        0.0983
     13 N         141.1021  137.9523  156.4493 N.ar    1  UNL1       -0.3044
     14 C         142.4226  137.2666  156.2593 C.ar    1  UNL1        0.1714
     15 N         143.1577  137.3063  157.5663 N.ar    1  UNL1       -0.2195
     16 S         142.5037  136.8032  154.8350 S.3     1  UNL1       -0.0753
     17 C         141.2332  137.2024  154.1447 C.3     1  UNL1        0.0896
     18 C         140.3670  137.9127  155.1423 C.3     1  UNL1        0.1201
     19 C         143.1728  138.7457  166.8369 C.3     1  UNL1        0.0437
     20 C         142.4480  139.8168  167.5966 C.3     1  UNL1        0.0768
     21 C         139.2332  139.7386  167.0416 C.3     1  UNL1        0.0173
     22 C         140.1775  140.8184  166.6031 C.3     1  UNL1        0.0576
     23 C         139.8099  142.0517  165.8326 C.3     1  UNL1        0.0174
     24 C         141.0605  142.8500  165.6115 C.3     1  UNL1        0.0187
     25 C         142.2010  142.1099  166.2454 C.3     1  UNL1        0.0721
     26 N         141.6552  140.8543  166.8582 N.3     1  UNL1       -0.2737
@<TRIPOS>BOND
     1    22    21    1
     2    22    23    1
     3    23    24    1
     4    24    25    1
     5    25    26    1
     6    26    20    1
     7    20    19    1
     8    19     1    1
     9     1     2   ar
    10     2     3   ar
    11     3     4   ar
    12     4     5   ar
    13     5     6   ar
    14     6    11    1
    15    11    12   ar
    16    12    13   ar
    17    13    14   ar
    18    14    15   ar
    19    14    16    1
    20    16    17    1
    21    17    18    1
    22     6     7   ar
    23     7     8   ar
    24     8     9   ar
    25     9    10   ar
    26    26    22    1
    27    10     1   ar
    28     9     4   ar
    29    15    11   ar
    30    18    13    1
@<TRIPOS>MOLECULE
*****
 26 30 0 0 0
SMALL
GASTEIGER

@<TRIPOS>ATOM
      1 C         139.7154  143.8582  165.2467 C.ar    1  UNL1       -0.0207
      2 C         138.4591  144.3808  164.6153 C.ar    1  UNL1       -0.0027
      3 C         138.4502  144.7581  163.1636 C.ar    1  UNL1        0.0188
      4 C         139.6976  144.6128  162.3433 C.ar    1  UNL1        0.0813
      5 N         139.6887  144.9902  160.8915 N.ar    1  UNL1       -0.2438
      6 C         140.9361  144.8449  160.0711 C.ar    1  UNL1        0.1004
      7 C         142.1924  144.3224  160.7026 C.ar    1  UNL1        0.0207
      8 C         142.2013  143.9451  162.1543 C.ar    1  UNL1        0.0031
      9 C         140.9539  144.0903  162.9746 C.ar    1  UNL1        0.0174
     10 C         140.9628  143.7130  164.4264 C.ar    1  UNL1       -0.0027
     11 C         140.9272  145.2222  158.6194 C.ar    1  UNL1        0.1181
     12 C         141.8675  144.7092  157.5694 C.ar    1  UNL1        0.0983
     13 N         141.4980  145.3487  156.2638 N.ar    1  UNL1       -0.3044
     14 C         140.3292  146.2570  156.5070 C.ar    1  UNL1        0.1714
     15 N         139.9765  146.1789  157.9629 N.ar    1  UNL1       -0.2195
     16 S         139.9597  146.8965  155.2015 S.3     1  UNL1       -0.0753
     17 C         140.9000  146.3835  154.1514 C.3     1  UNL1        0.0896
     18 C         141.8507  145.4268  154.8080 C.3     1  UNL1        0.1201
     19 C         139.7243  143.4809  166.6985 C.3     1  UNL1        0.0437
     20 C         140.5052  142.2855  167.1579 C.3     1  UNL1        0.0768
     21 C         139.9937  143.2188  170.2428 C.3     1  UNL1        0.0173
     22 C         141.3198  142.8668  169.6366 C.3     1  UNL1        0.0576
     23 C         142.6436  142.8819  170.3418 C.3     1  UNL1        0.0174
     24 C         143.6969  142.4623  169.3597 C.3     1  UNL1        0.0187
     25 C         143.0240  142.1878  168.0474 C.3     1  UNL1        0.0721
     26 N         141.5549  142.4378  168.2186 N.3     1  UNL1       -0.2737
@<TRIPOS>BOND
     1    22    21    1
     2    22    23    1
     3    23    24    1
     4    24    25    1
     5    25    26    1
     6    26    20    1
     7    20    19    1
     8    19     1    1
     9     1     2   ar
    10     2     3   ar
    11     3     4   ar
    12     4     5   ar
    13     5     6   ar
    14     6    11    1
    15    11    12   ar
    16    12    13   ar
    17    13    14   ar
    18    14    15   ar
    19    14    16    1
    20    16    17    1
    21    17    18    1
    22     6     7   ar
    23     7     8   ar
    24     8     9   ar
    25     9    10   ar
    26    26    22    1
    27    10     1   ar
    28     9     4   ar
    29    15    11   ar
    30    18    13    1
@<TRIPOS>MOLECULE
*****
 26 30 0 0 0
SMALL
GASTEIGER

@<TRIPOS>ATOM
      1 C         138.5126  139.0969  165.7029 C.ar    1  UNL1       -0.0207
      2 C         138.8747  137.8042  165.0337 C.ar    1  UNL1       -0.0027
      3 C         138.9391  137.7268  163.5371 C.ar    1  UNL1        0.0188
      4 C         138.6413  138.9419  162.7097 C.ar    1  UNL1        0.0813
      5 N         138.7056  138.8644  161.2130 N.ar    1  UNL1       -0.2438
      6 C         138.4078  140.0796  160.3856 C.ar    1  UNL1        0.1004
      7 C         138.0456  141.3723  161.0548 C.ar    1  UNL1        0.0207
      8 C         137.9812  141.4498  162.5514 C.ar    1  UNL1        0.0031
      9 C         138.2791  140.2346  163.3789 C.ar    1  UNL1        0.0174
     10 C         138.2147  140.3121  164.8754 C.ar    1  UNL1       -0.0027
     11 C         138.4721  140.0021  158.8890 C.ar    1  UNL1        0.1181
     12 C         137.7632  140.9096  157.9279 C.ar    1  UNL1        0.0983
     13 N         138.1096  140.4720  156.5357 N.ar    1  UNL1       -0.3044
     14 C         139.0327  139.2939  156.6363 C.ar    1  UNL1        0.1714
     15 N         139.2567  139.0035  158.0908 N.ar    1  UNL1       -0.2195
     16 S         139.3791  138.8562  155.2440 S.3     1  UNL1       -0.0753
     17 C         138.6702  139.7637  154.2829 C.3     1  UNL1        0.0896
     18 C         137.8856  140.7623  155.0812 C.3     1  UNL1        0.1201
     19 C         138.4482  139.1744  167.1995 C.3     1  UNL1        0.0437
     20 C         139.4940  139.9380  167.9566 C.3     1  UNL1        0.0768
     21 C         140.2412  142.9189  166.8588 C.3     1  UNL1        0.0173
     22 C         141.1157  141.7032  166.7738 C.3     1  UNL1        0.0576
     23 C         142.4873  141.6442  166.1693 C.3     1  UNL1        0.0174
     24 C         142.9915  140.2376  166.3004 C.3     1  UNL1        0.0187
     25 C         141.9315  139.4272  166.9859 C.3     1  UNL1        0.0721
     26 N         140.7723  140.3331  167.2785 N.3     1  UNL1       -0.2737
@<TRIPOS>BOND
     1    22    21    1
     2    22    23    1
     3    23    24    1
     4    24    25    1
     5    25    26    1
     6    26    20    1
     7    20    19    1
     8    19     1    1
     9     1     2   ar
    10     2     3   ar
    11     3     4   ar
    12     4     5   ar
    13     5     6   ar
    14     6    11    1
    15    11    12   ar
    16    12    13   ar
    17    13    14   ar
    18    14    15   ar
    19    14    16    1
    20    16    17    1
    21    17    18    1
    22     6     7   ar
    23     7     8   ar
    24     8     9   ar
    25     9    10   ar
    26    26    22    1
    27    10     1   ar
    28     9     4   ar
    29    15    11   ar
    30    18    13    1
