@<TRIPOS>MOLECULE
*****
 26 28 0 0 0
SMALL
GASTEIGER

@<TRIPOS>ATOM
      1 C         139.8715  138.0209  163.9659 C.ar    1  UNL1        0.1386
      2 C         138.6316  138.3314  164.7508 C.ar    1  UNL1        0.0369
      3 C         138.7362  139.0375  166.0699 C.ar    1  UNL1        0.0043
      4 C         140.0808  139.4333  166.6043 C.ar    1  UNL1        0.0153
      5 C         141.3207  139.1228  165.8194 C.ar    1  UNL1        0.0043
      6 C         141.2161  138.4167  164.5002 C.ar    1  UNL1        0.0369
      7 C         140.1854  140.1395  167.9235 C.2     1  UNL1        0.0767
      8 N         139.1528  139.9019  168.9853 N.2     1  UNL1       -0.1836
      9 N         139.2574  140.6081  170.3046 N.am    1  UNL1       -0.2062
     10 C         140.3946  141.5519  170.5620 C.2     1  UNL1        0.2405
     11 O         140.4992  142.2580  171.8812 O.2     1  UNL1       -0.2734
     12 C         141.4271  141.7894  169.5001 C.3     1  UNL1        0.0761
     13 C         142.6426  142.3385  168.8137 C.3     1  UNL1        0.0095
     14 C         141.9538  142.6863  170.5810 C.3     1  UNL1        0.0095
     15 C         141.3225  141.0832  168.1809 C.3     1  UNL1        0.0560
     16 H         138.5797  140.4522  171.0015 H       1  UNL1        0.1772
     17 O         139.7669  137.3147  162.6466 O.3     1  UNL1       -0.4754
     18 C         139.6786  138.1076  161.3764 C.3     1  UNL1        0.2068
     19 C         138.4901  138.9869  161.1222 C.3     1  UNL1        0.0646
     20 C         138.6419  140.4789  161.1477 C.3     1  UNL1        0.0759
     21 C         141.2656  141.5708  162.7519 C.3     1  UNL1        0.0173
     22 C         139.8393  141.7132  163.1941 C.3     1  UNL1        0.0576
     23 C         139.3687  142.3825  164.4512 C.3     1  UNL1        0.0174
     24 C         137.8718  142.2944  164.4909 C.3     1  UNL1        0.0187
     25 C         137.4173  141.5705  163.2582 C.3     1  UNL1        0.0721
     26 N         138.6334  141.2114  162.4567 N.3     1  UNL1       -0.2738
@<TRIPOS>BOND
     1    22    21    1
     2    22    23    1
     3    23    24    1
     4    24    25    1
     5    25    26    1
     6    26    20    1
     7    20    19    1
     8    19    18    1
     9    18    17    1
    10    17     1    1
    11     1     2   ar
    12     2     3   ar
    13     3     4   ar
    14     4     7    1
    15     7     8    2
    16     8     9    1
    17     9    10   am
    18    10    11    2
    19    10    12    1
    20    12    13    1
    21    12    14    1
    22    12    15    1
    23     4     5   ar
    24     5     6   ar
    25    26    22    1
    26     6     1   ar
    27    15     7    1
    28     9    16    1
@<TRIPOS>MOLECULE
*****
 26 28 0 0 0
SMALL
GASTEIGER

@<TRIPOS>ATOM
      1 C         139.7735  138.2203  163.9933 C.ar    1  UNL1        0.1386
      2 C         141.1358  138.4094  164.5917 C.ar    1  UNL1        0.0369
      3 C         141.2819  139.0711  165.9300 C.ar    1  UNL1        0.0043
      4 C         140.0655  139.5436  166.6697 C.ar    1  UNL1        0.0153
      5 C         138.7032  139.3544  166.0713 C.ar    1  UNL1        0.0043
      6 C         138.5572  138.6928  164.7331 C.ar    1  UNL1        0.0369
      7 C         140.2116  140.2052  168.0080 C.2     1  UNL1        0.0767
      8 N         139.2034  139.9445  169.0876 N.2     1  UNL1       -0.1836
      9 N         139.3494  140.6062  170.4259 N.am    1  UNL1       -0.2062
     10 C         140.5038  141.5285  170.6845 C.2     1  UNL1        0.2405
     11 O         140.6499  142.1901  172.0227 O.2     1  UNL1       -0.2734
     12 C         141.5120  141.7891  169.6049 C.3     1  UNL1        0.0761
     13 C         142.7163  142.3469  168.9057 C.3     1  UNL1        0.0095
     14 C         142.0763  142.6445  170.7003 C.3     1  UNL1        0.0095
     15 C         141.3659  141.1275  168.2667 C.3     1  UNL1        0.0560
     16 H         138.6877  140.4351  171.1345 H       1  UNL1        0.1772
     17 O         139.6274  137.5587  162.6550 O.3     1  UNL1       -0.4754
     18 C         139.4649  138.3934  161.4194 C.3     1  UNL1        0.2068
     19 C         140.1780  139.7080  161.3031 C.3     1  UNL1        0.0646
     20 C         139.5172  140.9650  161.7859 C.3     1  UNL1        0.0759
     21 C         137.7123  142.4297  164.0764 C.3     1  UNL1        0.0173
     22 C         139.2095  142.3394  164.0576 C.3     1  UNL1        0.0576
     23 C         140.1399  142.9066  165.0885 C.3     1  UNL1        0.0174
     24 C         141.5446  142.5838  164.6728 C.3     1  UNL1        0.0187
     25 C         141.4822  141.8172  163.3850 C.3     1  UNL1        0.0721
     26 N         140.0391  141.6662  163.0048 N.3     1  UNL1       -0.2738
@<TRIPOS>BOND
     1    22    21    1
     2    22    23    1
     3    23    24    1
     4    24    25    1
     5    25    26    1
     6    26    20    1
     7    20    19    1
     8    19    18    1
     9    18    17    1
    10    17     1    1
    11     1     2   ar
    12     2     3   ar
    13     3     4   ar
    14     4     7    1
    15     7     8    2
    16     8     9    1
    17     9    10   am
    18    10    11    2
    19    10    12    1
    20    12    13    1
    21    12    14    1
    22    12    15    1
    23     4     5   ar
    24     5     6   ar
    25    26    22    1
    26     6     1   ar
    27    15     7    1
    28     9    16    1
@<TRIPOS>MOLECULE
*****
 26 28 0 0 0
SMALL
GASTEIGER

@<TRIPOS>ATOM
      1 C         138.3848  139.0344  163.5403 C.ar    1  UNL1        0.1386
      2 C         138.3162  140.4687  163.9740 C.ar    1  UNL1        0.0369
      3 C         138.6943  140.8473  165.3753 C.ar    1  UNL1        0.0043
      4 C         139.1410  139.7917  166.3429 C.ar    1  UNL1        0.0153
      5 C         139.2096  138.3574  165.9091 C.ar    1  UNL1        0.0043
      6 C         138.8315  137.9788  164.5078 C.ar    1  UNL1        0.0369
      7 C         139.5192  140.1703  167.7442 C.2     1  UNL1        0.0767
      8 N         138.7432  139.6216  168.9047 N.2     1  UNL1       -0.1836
      9 N         139.1214  140.0003  170.3060 N.am    1  UNL1       -0.2062
     10 C         140.2755  140.9277  170.5468 C.2     1  UNL1        0.2405
     11 O         140.6536  141.3064  171.9480 O.2     1  UNL1       -0.2734
     12 C         141.0514  141.4765  169.3862 C.3     1  UNL1        0.0761
     13 C         142.0831  142.2501  168.6199 C.3     1  UNL1        0.0095
     14 C         141.7879  142.1239  170.5214 C.3     1  UNL1        0.0095
     15 C         140.6732  141.0978  167.9850 C.3     1  UNL1        0.0560
     16 H         138.6121  139.6401  171.0677 H       1  UNL1        0.1772
     17 O         138.0066  138.6557  162.1390 O.3     1  UNL1       -0.4754
     18 C         139.0693  138.2654  161.1549 C.3     1  UNL1        0.2068
     19 C         140.0824  139.2759  160.7049 C.3     1  UNL1        0.0646
     20 C         141.5211  139.1231  161.1010 C.3     1  UNL1        0.0759
     21 C         141.5775  141.8957  162.8212 C.3     1  UNL1        0.0173
     22 C         141.9472  140.5342  163.3308 C.3     1  UNL1        0.0576
     23 C         142.4077  140.2081  164.7206 C.3     1  UNL1        0.0174
     24 C         142.6664  138.7321  164.7889 C.3     1  UNL1        0.0187
     25 C         142.3658  138.1461  163.4413 C.3     1  UNL1        0.0721
     26 N         141.9212  139.2598  162.5401 N.3     1  UNL1       -0.2738
@<TRIPOS>BOND
     1    22    21    1
     2    22    23    1
     3    23    24    1
     4    24    25    1
     5    25    26    1
     6    26    20    1
     7    20    19    1
     8    19    18    1
     9    18    17    1
    10    17     1    1
    11     1     2   ar
    12     2     3   ar
    13     3     4   ar
    14     4     7    1
    15     7     8    2
    16     8     9    1
    17     9    10   am
    18    10    11    2
    19    10    12    1
    20    12    13    1
    21    12    14    1
    22    12    15    1
    23     4     5   ar
    24     5     6   ar
    25    26    22    1
    26     6     1   ar
    27    15     7    1
    28     9    16    1
@<TRIPOS>MOLECULE
*****
 26 28 0 0 0
SMALL
GASTEIGER

@<TRIPOS>ATOM
      1 C         141.0683  137.9417  164.0517 C.ar    1  UNL1        0.1386
      2 C         142.3048  138.1129  164.8833 C.ar    1  UNL1        0.0369
      3 C         142.2300  138.8270  166.2003 C.ar    1  UNL1        0.0043
      4 C         140.9187  139.3700  166.6856 C.ar    1  UNL1        0.0153
      5 C         139.6821  139.1988  165.8541 C.ar    1  UNL1        0.0043
      6 C         139.7569  138.4846  164.5371 C.ar    1  UNL1        0.0369
      7 C         140.8439  140.0841  168.0027 C.2     1  UNL1        0.0767
      8 N         139.6750  139.8557  168.9144 N.2     1  UNL1       -0.1836
      9 N         139.6002  140.5698  170.2314 N.am    1  UNL1       -0.2062
     10 C         140.6944  141.5124  170.6366 C.2     1  UNL1        0.2405
     11 O         140.6197  142.2265  171.9536 O.2     1  UNL1       -0.2734
     12 C         141.8635  141.7408  169.7248 C.3     1  UNL1        0.0761
     13 C         143.1633  142.2826  169.2081 C.3     1  UNL1        0.0095
     14 C         142.2402  142.6431  170.8623 C.3     1  UNL1        0.0095
     15 C         141.9382  141.0267  168.4079 C.3     1  UNL1        0.0560
     16 H         138.8330  140.4199  170.8298 H       1  UNL1        0.1772
     17 O         141.1430  137.2276  162.7347 O.3     1  UNL1       -0.4754
     18 C         141.9098  137.8322  161.5962 C.3     1  UNL1        0.2068
     19 C         141.8202  139.3058  161.3302 C.3     1  UNL1        0.0646
     20 C         142.9413  140.2122  161.7442 C.3     1  UNL1        0.0759
     21 C         145.3675  140.9161  163.8100 C.3     1  UNL1        0.0173
     22 C         143.9383  141.3503  163.9477 C.3     1  UNL1        0.0576
     23 C         143.3735  142.1842  165.0592 C.3     1  UNL1        0.0174
     24 C         141.9091  142.3761  164.7966 C.3     1  UNL1        0.0187
     25 C         141.5690  141.6607  163.5228 C.3     1  UNL1        0.0721
     26 N         142.8231  141.0267  162.9982 N.3     1  UNL1       -0.2738
@<TRIPOS>BOND
     1    22    21    1
     2    22    23    1
     3    23    24    1
     4    24    25    1
     5    25    26    1
     6    26    20    1
     7    20    19    1
     8    19    18    1
     9    18    17    1
    10    17     1    1
    11     1     2   ar
    12     2     3   ar
    13     3     4   ar
    14     4     7    1
    15     7     8    2
    16     8     9    1
    17     9    10   am
    18    10    11    2
    19    10    12    1
    20    12    13    1
    21    12    14    1
    22    12    15    1
    23     4     5   ar
    24     5     6   ar
    25    26    22    1
    26     6     1   ar
    27    15     7    1
    28     9    16    1
@<TRIPOS>MOLECULE
*****
 26 28 0 0 0
SMALL
GASTEIGER

@<TRIPOS>ATOM
      1 C         144.6799  141.6190  163.6871 C.ar    1  UNL1        0.1386
      2 C         144.0065  140.4079  164.2612 C.ar    1  UNL1        0.0369
      3 C         143.3207  140.4915  165.5926 C.ar    1  UNL1        0.0043
      4 C         143.3083  141.7862  166.3499 C.ar    1  UNL1        0.0153
      5 C         143.9818  142.9974  165.7758 C.ar    1  UNL1        0.0043
      6 C         144.6676  142.9137  164.4444 C.ar    1  UNL1        0.0369
      7 C         142.6225  141.8698  167.6813 C.2     1  UNL1        0.0767
      8 N         143.2527  142.6418  168.8024 N.2     1  UNL1       -0.1836
      9 N         142.5668  142.7254  170.1339 N.am    1  UNL1       -0.2062
     10 C         141.2508  142.0370  170.3442 C.2     1  UNL1        0.2405
     11 O         140.5650  142.1206  171.6755 O.2     1  UNL1       -0.2734
     12 C         140.6207  141.2650  169.2230 C.3     1  UNL1        0.0761
     13 C         139.6332  140.4201  168.4739 C.3     1  UNL1        0.0095
     14 C         139.5919  141.0551  170.2943 C.3     1  UNL1        0.0095
     15 C         141.3065  141.1814  167.8916 C.3     1  UNL1        0.0560
     16 H         142.9805  143.2321  170.8697 H       1  UNL1        0.1772
     17 O         145.3658  141.5354  162.3556 O.3     1  UNL1       -0.4754
     18 C         144.5776  141.7212  161.0930 C.3     1  UNL1        0.2068
     19 C         143.7409  142.9521  160.9055 C.3     1  UNL1        0.0646
     20 C         142.2546  142.8848  161.0959 C.3     1  UNL1        0.0759
     21 C         140.5519  141.0069  163.1510 C.3     1  UNL1        0.0173
     22 C         140.8613  142.4627  163.3376 C.3     1  UNL1        0.0576
     23 C         140.4424  143.3110  164.5017 C.3     1  UNL1        0.0174
     24 C         140.9662  144.6984  164.2764 C.3     1  UNL1        0.0187
     25 C         141.7088  144.7076  162.9732 C.3     1  UNL1        0.0721
     26 N         141.6440  143.3259  162.3930 N.3     1  UNL1       -0.2738
@<TRIPOS>BOND
     1    22    21    1
     2    22    23    1
     3    23    24    1
     4    24    25    1
     5    25    26    1
     6    26    20    1
     7    20    19    1
     8    19    18    1
     9    18    17    1
    10    17     1    1
    11     1     2   ar
    12     2     3   ar
    13     3     4   ar
    14     4     7    1
    15     7     8    2
    16     8     9    1
    17     9    10   am
    18    10    11    2
    19    10    12    1
    20    12    13    1
    21    12    14    1
    22    12    15    1
    23     4     5   ar
    24     5     6   ar
    25    26    22    1
    26     6     1   ar
    27    15     7    1
    28     9    16    1
@<TRIPOS>MOLECULE
*****
 26 28 0 0 0
SMALL
GASTEIGER

@<TRIPOS>ATOM
      1 C         141.7864  142.7932  163.1656 C.ar    1  UNL1        0.1386
      2 C         141.0350  141.4983  163.2590 C.ar    1  UNL1        0.0369
      3 C         140.6386  140.9564  164.6003 C.ar    1  UNL1        0.0043
      4 C         140.9936  141.7092  165.8482 C.ar    1  UNL1        0.0153
      5 C         141.7450  143.0041  165.7548 C.ar    1  UNL1        0.0043
      6 C         142.1414  143.5460  164.4135 C.ar    1  UNL1        0.0369
      7 C         140.5972  141.1672  167.1895 C.2     1  UNL1        0.0767
      8 N         139.4665  140.1876  167.2982 N.2     1  UNL1       -0.1836
      9 N         139.0701  139.6456  168.6396 N.am    1  UNL1       -0.2062
     10 C         139.8044  140.0832  169.8722 C.2     1  UNL1        0.2405
     11 O         139.4080  139.5412  171.2135 O.2     1  UNL1       -0.2734
     12 C         140.9351  141.0629  169.7634 C.3     1  UNL1        0.0761
     13 C         142.0644  141.9628  170.1695 C.3     1  UNL1        0.0095
     14 C         140.9309  140.8334  171.2458 C.3     1  UNL1        0.0095
     15 C         141.3315  141.6048  168.4221 C.3     1  UNL1        0.0560
     16 H         138.3279  139.0026  168.7109 H       1  UNL1        0.1772
     17 O         142.1828  143.3352  161.8243 O.3     1  UNL1       -0.4754
     18 C         141.3543  144.4017  161.1716 C.3     1  UNL1        0.2068
     19 C         140.6652  145.4356  162.0121 C.3     1  UNL1        0.0646
     20 C         139.1739  145.4017  162.1698 C.3     1  UNL1        0.0759
     21 C         138.7057  144.9540  165.3681 C.3     1  UNL1        0.0173
     22 C         138.2987  144.0090  164.2767 C.3     1  UNL1        0.0576
     23 C         137.6049  142.6923  164.4638 C.3     1  UNL1        0.0174
     24 C         137.3914  142.0843  163.1092 C.3     1  UNL1        0.0187
     25 C         137.9531  143.0252  162.0850 C.3     1  UNL1        0.0721
     26 N         138.5139  144.2148  162.8065 N.3     1  UNL1       -0.2738
@<TRIPOS>BOND
     1    22    21    1
     2    22    23    1
     3    23    24    1
     4    24    25    1
     5    25    26    1
     6    26    20    1
     7    20    19    1
     8    19    18    1
     9    18    17    1
    10    17     1    1
    11     1     2   ar
    12     2     3   ar
    13     3     4   ar
    14     4     7    1
    15     7     8    2
    16     8     9    1
    17     9    10   am
    18    10    11    2
    19    10    12    1
    20    12    13    1
    21    12    14    1
    22    12    15    1
    23     4     5   ar
    24     5     6   ar
    25    26    22    1
    26     6     1   ar
    27    15     7    1
    28     9    16    1
@<TRIPOS>MOLECULE
*****
 26 28 0 0 0
SMALL
GASTEIGER

@<TRIPOS>ATOM
      1 C         143.9090  139.4277  164.1943 C.ar    1  UNL1        0.1386
      2 C         143.4791  138.3964  165.1950 C.ar    1  UNL1        0.0369
      3 C         142.9346  138.8239  166.5257 C.ar    1  UNL1        0.0043
      4 C         142.8200  140.2826  166.8557 C.ar    1  UNL1        0.0153
      5 C         143.2500  141.3139  165.8549 C.ar    1  UNL1        0.0043
      6 C         143.7945  140.8865  164.5243 C.ar    1  UNL1        0.0369
      7 C         142.2755  140.7101  168.1864 C.2     1  UNL1        0.0767
      8 N         142.6454  139.9519  169.4267 N.2     1  UNL1       -0.1836
      9 N         142.1009  140.3794  170.7575 N.am    1  UNL1       -0.2062
     10 C         141.1865  141.5650  170.8479 C.2     1  UNL1        0.2405
     11 O         140.6420  141.9925  172.1785 O.2     1  UNL1       -0.2734
     12 C         140.8166  142.3232  169.6075 C.3     1  UNL1        0.0761
     13 C         140.1809  143.3542  168.7226 C.3     1  UNL1        0.0095
     14 C         140.0513  143.1087  170.6309 C.3     1  UNL1        0.0095
     15 C         141.3611  141.8957  168.2768 C.3     1  UNL1        0.0560
     16 H         142.3436  139.8818  171.5715 H       1  UNL1        0.1772
     17 O         144.4535  139.0002  162.8635 O.3     1  UNL1       -0.4754
     18 C         143.7206  139.3557  161.6041 C.3     1  UNL1        0.2068
     19 C         142.5740  138.5077  161.1388 C.3     1  UNL1        0.0646
     20 C         141.1637  138.9308  161.4249 C.3     1  UNL1        0.0759
     21 C         140.3099  141.3189  163.4785 C.3     1  UNL1        0.0173
     22 C         140.1979  139.8467  163.7429 C.3     1  UNL1        0.0576
     23 C         139.6737  139.2137  164.9977 C.3     1  UNL1        0.0174
     24 C         139.7422  137.7247  164.8293 C.3     1  UNL1        0.0187
     25 C         140.3087  137.4375  163.4704 C.3     1  UNL1        0.0721
     26 N         140.5903  138.7490  162.7990 N.3     1  UNL1       -0.2738
@<TRIPOS>BOND
     1    22    21    1
     2    22    23    1
     3    23    24    1
     4    24    25    1
     5    25    26    1
     6    26    20    1
     7    20    19    1
     8    19    18    1
     9    18    17    1
    10    17     1    1
    11     1     2   ar
    12     2     3   ar
    13     3     4   ar
    14     4     7    1
    15     7     8    2
    16     8     9    1
    17     9    10   am
    18    10    11    2
    19    10    12    1
    20    12    13    1
    21    12    14    1
    22    12    15    1
    23     4     5   ar
    24     5     6   ar
    25    26    22    1
    26     6     1   ar
    27    15     7    1
    28     9    16    1
@<TRIPOS>MOLECULE
*****
 26 28 0 0 0
SMALL
GASTEIGER

@<TRIPOS>ATOM
      1 C         144.2549  140.8306  163.8786 C.ar    1  UNL1        0.1386
      2 C         144.2172  142.1192  164.6455 C.ar    1  UNL1        0.0369
      3 C         143.6129  142.1577  166.0178 C.ar    1  UNL1        0.0043
      4 C         143.0463  140.9077  166.6232 C.ar    1  UNL1        0.0153
      5 C         143.0840  139.6192  165.8562 C.ar    1  UNL1        0.0043
      6 C         143.6883  139.5807  164.4839 C.ar    1  UNL1        0.0369
      7 C         142.4419  140.9463  167.9956 C.2     1  UNL1        0.0767
      8 N         142.7449  139.8554  168.9794 N.2     1  UNL1       -0.1836
      9 N         142.1406  139.8940  170.3518 N.am    1  UNL1       -0.2062
     10 C         141.2332  141.0235  170.7402 C.2     1  UNL1        0.2405
     11 O         140.6289  141.0621  172.1125 O.2     1  UNL1       -0.2734
     12 C         140.9303  142.1145  169.7563 C.3     1  UNL1        0.0761
     13 C         140.3470  143.3703  169.1794 C.3     1  UNL1        0.0095
     14 C         140.1233  142.5892  170.9283 C.3     1  UNL1        0.0095
     15 C         141.5346  142.0758  168.3840 C.3     1  UNL1        0.0560
     16 H         142.3394  139.1779  170.9976 H       1  UNL1        0.1772
     17 O         144.8593  140.7921  162.5062 O.3     1  UNL1       -0.4754
     18 C         144.0358  141.1767  161.3130 C.3     1  UNL1        0.2068
     19 C         142.5419  141.2538  161.4259 C.3     1  UNL1        0.0646
     20 C         141.8843  142.5469  161.8070 C.3     1  UNL1        0.0759
     21 C         141.6779  145.2179  163.6705 C.3     1  UNL1        0.0173
     22 C         141.0533  143.8865  163.9656 C.3     1  UNL1        0.0576
     23 C         140.2241  143.5490  165.1692 C.3     1  UNL1        0.0174
     24 C         139.8065  142.1127  165.0565 C.3     1  UNL1        0.0187
     25 C         140.3776  141.5625  163.7832 C.3     1  UNL1        0.0721
     26 N         141.1482  142.6588  163.1091 N.3     1  UNL1       -0.2738
@<TRIPOS>BOND
     1    22    21    1
     2    22    23    1
     3    23    24    1
     4    24    25    1
     5    25    26    1
     6    26    20    1
     7    20    19    1
     8    19    18    1
     9    18    17    1
    10    17     1    1
    11     1     2   ar
    12     2     3   ar
    13     3     4   ar
    14     4     7    1
    15     7     8    2
    16     8     9    1
    17     9    10   am
    18    10    11    2
    19    10    12    1
    20    12    13    1
    21    12    14    1
    22    12    15    1
    23     4     5   ar
    24     5     6   ar
    25    26    22    1
    26     6     1   ar
    27    15     7    1
    28     9    16    1
@<TRIPOS>MOLECULE
*****
 26 28 0 0 0
SMALL
GASTEIGER

@<TRIPOS>ATOM
      1 C         140.5359  143.4474  163.3509 C.ar    1  UNL1        0.1386
      2 C         141.5445  142.5425  163.9940 C.ar    1  UNL1        0.0369
      3 C         141.5173  142.3235  165.4776 C.ar    1  UNL1        0.0043
      4 C         140.4815  143.0095  166.3182 C.ar    1  UNL1        0.0153
      5 C         139.4729  143.9144  165.6751 C.ar    1  UNL1        0.0043
      6 C         139.5001  144.1334  164.1914 C.ar    1  UNL1        0.0369
      7 C         140.4544  142.7905  167.8019 C.2     1  UNL1        0.0767
      8 N         140.1157  143.9260  168.7216 N.2     1  UNL1       -0.1836
      9 N         140.0886  143.7070  170.2053 N.am    1  UNL1       -0.2062
     10 C         140.4001  142.3524  170.7693 C.2     1  UNL1        0.2405
     11 O         140.3730  142.1333  172.2529 O.2     1  UNL1       -0.2734
     12 C         140.7388  141.2168  169.8495 C.3     1  UNL1        0.0761
     13 C         141.1132  139.8390  169.3896 C.3     1  UNL1        0.0095
     14 C         140.8417  140.5193  171.1735 C.3     1  UNL1        0.0095
     15 C         140.7659  141.4359  168.3659 C.3     1  UNL1        0.0560
     16 H         139.8663  144.4523  170.8089 H       1  UNL1        0.1772
     17 O         140.5631  143.6664  161.8671 O.3     1  UNL1       -0.4754
     18 C         140.5666  142.4909  160.9354 C.3     1  UNL1        0.2068
     19 C         139.4379  141.5035  160.9695 C.3     1  UNL1        0.0646
     20 C         139.6370  140.1584  161.6028 C.3     1  UNL1        0.0759
     21 C         137.1837  141.5157  163.2725 C.3     1  UNL1        0.0173
     22 C         138.2250  140.5915  163.8306 C.3     1  UNL1        0.0576
     23 C         138.3214  140.1289  165.2542 C.3     1  UNL1        0.0174
     24 C         139.5087  139.2190  165.3666 C.3     1  UNL1        0.0187
     25 C         140.1460  139.1194  164.0124 C.3     1  UNL1        0.0721
     26 N         139.3526  139.9676  163.0631 N.3     1  UNL1       -0.2738
@<TRIPOS>BOND
     1    22    21    1
     2    22    23    1
     3    23    24    1
     4    24    25    1
     5    25    26    1
     6    26    20    1
     7    20    19    1
     8    19    18    1
     9    18    17    1
    10    17     1    1
    11     1     2   ar
    12     2     3   ar
    13     3     4   ar
    14     4     7    1
    15     7     8    2
    16     8     9    1
    17     9    10   am
    18    10    11    2
    19    10    12    1
    20    12    13    1
    21    12    14    1
    22    12    15    1
    23     4     5   ar
    24     5     6   ar
    25    26    22    1
    26     6     1   ar
    27    15     7    1
    28     9    16    1
