@<TRIPOS>MOLECULE
*****
 37 41 0 0 0
SMALL
GASTEIGER

@<TRIPOS>ATOM
      1 C         140.9158  138.5657  159.9720 C.2     1  UNL1        0.3003
      2 N         141.9576  139.0000  160.9598 N.2     1  UNL1       -0.0273
      3 C         143.3680  139.2362  160.5073 C.cat   1  UNL1        0.4670
      4 N         143.7367  139.0380  159.0668 N.2     1  UNL1        0.0298
      5 C         142.6949  138.6037  158.0790 C.2     1  UNL1        0.3719
      6 N         142.7611  138.3294  156.6058 N.2     1  UNL1       -0.0339
      7 C         141.3916  137.9237  156.1478 C.2     1  UNL1        0.2323
      8 C         140.4789  137.9472  157.3380 C.2     1  UNL1        0.0474
      9 C         141.2844  138.3675  158.5315 C.3     1  UNL1        0.2316
     10 N         144.4099  139.6706  161.4953 N.pl3   1  UNL1       -0.1922
     11 H         145.3467  139.7718  161.2102 H       1  UNL1        0.2523
     12 C         144.0243  139.9507  162.9175 C.ar    1  UNL1        0.1095
     13 C         144.0019  141.3623  163.4244 C.ar    1  UNL1        0.0325
     14 C         143.6163  141.6424  164.8467 C.ar    1  UNL1        0.0172
     15 C         143.2531  140.5110  165.7621 C.ar    1  UNL1        0.0481
     16 C         143.2754  139.0994  165.2552 C.ar    1  UNL1        0.0172
     17 C         143.6610  138.8193  163.8329 C.ar    1  UNL1        0.0325
     18 N         142.8675  140.7911  167.1844 N.pl3   1  UNL1       -0.3046
     19 C         142.5243  139.6579  168.1054 C.3     1  UNL1        0.1081
     20 C         142.1387  139.9379  169.5277 C.3     1  UNL1        0.0938
     21 N         142.0962  141.3510  170.0289 N.3     1  UNL1       -0.2686
     22 C         141.7106  141.6310  171.4512 C.3     1  UNL1        0.0897
     23 C         142.4394  142.4841  169.1079 C.3     1  UNL1        0.0938
     24 C         142.8250  142.2042  167.6856 C.3     1  UNL1        0.1081
     25 O         139.5053  138.3295  160.4245 O.3     1  UNL1       -0.4266
     26 C         138.1237  140.2198  163.6289 C.ar    1  UNL1        0.0536
     27 C         138.3379  139.1781  164.6868 C.ar    1  UNL1        0.0149
     28 C         138.9412  137.8537  164.3239 C.ar    1  UNL1        0.0044
     29 C         139.3303  137.5707  162.9031 C.ar    1  UNL1        0.0377
     30 C         139.1162  138.6124  161.8453 C.ar    1  UNL1        0.1495
     31 C         138.5129  139.9370  162.2081 C.ar    1  UNL1        0.0522
     32 C         138.4081  142.7106  164.3109 C.2     1  UNL1        0.2496
     33 O         139.8991  142.5523  164.2672 O.2     1  UNL1       -0.2698
     34 N         137.5205  141.5443  163.9918 N.am    1  UNL1       -0.2803
     35 H         136.5419  141.6482  164.0205 H       1  UNL1        0.1552
     36 C         138.5523  144.9801  165.5673 C.2     1  UNL1        0.0048
     37 C         137.8048  144.0351  164.6739 C.2     1  UNL1        0.0580
@<TRIPOS>BOND
     1    36    37    2
     2    37    32    1
     3    32    33    2
     4    32    34   am
     5    34    26    1
     6    26    27   ar
     7    27    28   ar
     8    28    29   ar
     9    29    30   ar
    10    30    25    1
    11    25     1    1
    12     1     2    2
    13     2     3    1
    14     3    10    1
    15    10    12    1
    16    12    13   ar
    17    13    14   ar
    18    14    15   ar
    19    15    18    1
    20    18    19    1
    21    19    20    1
    22    20    21    1
    23    21    22    1
    24    21    23    1
    25    23    24    1
    26    15    16   ar
    27    16    17   ar
    28     3     4    2
    29     4     5    1
    30     5     6    2
    31     6     7    1
    32     7     8    2
    33     8     9    1
    34    30    31   ar
    35    31    26   ar
    36     9     1    1
    37    17    12   ar
    38     9     5    1
    39    24    18    1
    40    34    35    1
    41    10    11    1
@<TRIPOS>MOLECULE
*****
 37 41 0 0 0
SMALL
GASTEIGER

@<TRIPOS>ATOM
      1 C         141.7850  140.7780  167.7035 C.2     1  UNL1        0.3003
      2 N         140.7673  140.0694  166.8597 N.2     1  UNL1       -0.0273
      3 C         139.4850  139.5919  167.4741 C.cat   1  UNL1        0.4670
      4 N         139.2203  139.8230  168.9324 N.2     1  UNL1        0.0298
      5 C         140.2381  140.5316  169.7762 C.2     1  UNL1        0.3719
      6 N         140.2553  140.9000  171.2302 N.2     1  UNL1       -0.0339
      7 C         141.5483  141.6052  171.5143 C.2     1  UNL1        0.2323
      8 C         142.3302  141.6727  170.2360 C.2     1  UNL1        0.0474
      9 C         141.5204  141.0091  169.1618 C.3     1  UNL1        0.2316
     10 N         138.4672  138.8833  166.6302 N.pl3   1  UNL1       -0.1922
     11 H         137.7569  138.3523  167.0577 H       1  UNL1        0.2523
     12 C         138.5317  138.9836  165.1349 C.ar    1  UNL1        0.1095
     13 C         139.0161  137.8176  164.3252 C.ar    1  UNL1        0.0325
     14 C         139.0807  137.9180  162.8299 C.ar    1  UNL1        0.0172
     15 C         138.6607  139.1844  162.1444 C.ar    1  UNL1        0.0481
     16 C         138.1763  140.3504  162.9542 C.ar    1  UNL1        0.0172
     17 C         138.1118  140.2500  164.4494 C.ar    1  UNL1        0.0325
     18 N         138.7252  139.2849  160.6491 N.pl3   1  UNL1       -0.3046
     19 C         139.6367  138.3792  159.8753 C.3     1  UNL1        0.1081
     20 C         139.7013  138.4796  158.3800 C.3     1  UNL1        0.0938
     21 N         138.8542  139.4857  157.6587 N.3     1  UNL1       -0.2686
     22 C         138.9188  139.5861  156.1635 C.3     1  UNL1        0.0897
     23 C         137.9427  140.3913  158.4326 C.3     1  UNL1        0.0938
     24 C         137.8782  140.2909  159.9279 C.3     1  UNL1        0.1081
     25 O         143.0674  141.2555  167.0891 O.3     1  UNL1       -0.4266
     26 C         141.8062  143.5458  164.1035 C.ar    1  UNL1        0.0536
     27 C         142.9912  144.4465  163.9171 C.ar    1  UNL1        0.0149
     28 C         144.2015  144.2836  164.7880 C.ar    1  UNL1        0.0044
     29 C         144.2269  143.2199  165.8454 C.ar    1  UNL1        0.0377
     30 C         143.0420  142.3192  166.0317 C.ar    1  UNL1        0.1495
     31 C         141.8316  142.4821  165.1608 C.ar    1  UNL1        0.0522
     32 C         139.3368  144.2939  163.8000 C.2     1  UNL1        0.2496
     33 O         139.2879  144.7161  165.2385 O.2     1  UNL1       -0.2698
     34 N         140.5959  143.7088  163.2325 N.am    1  UNL1       -0.2803
     35 H         140.6280  143.4317  162.2883 H       1  UNL1        0.1552
     36 C         137.9322  143.5632  161.7401 C.2     1  UNL1        0.0048
     37 C         138.1265  144.4569  162.9290 C.2     1  UNL1        0.0580
@<TRIPOS>BOND
     1    36    37    2
     2    37    32    1
     3    32    33    2
     4    32    34   am
     5    34    26    1
     6    26    27   ar
     7    27    28   ar
     8    28    29   ar
     9    29    30   ar
    10    30    25    1
    11    25     1    1
    12     1     2    2
    13     2     3    1
    14     3    10    1
    15    10    12    1
    16    12    13   ar
    17    13    14   ar
    18    14    15   ar
    19    15    18    1
    20    18    19    1
    21    19    20    1
    22    20    21    1
    23    21    22    1
    24    21    23    1
    25    23    24    1
    26    15    16   ar
    27    16    17   ar
    28     3     4    2
    29     4     5    1
    30     5     6    2
    31     6     7    1
    32     7     8    2
    33     8     9    1
    34    30    31   ar
    35    31    26   ar
    36     9     1    1
    37    17    12   ar
    38     9     5    1
    39    24    18    1
    40    34    35    1
    41    10    11    1
@<TRIPOS>MOLECULE
*****
 37 41 0 0 0
SMALL
GASTEIGER

@<TRIPOS>ATOM
      1 C         138.6211  142.6074  159.7006 C.2     1  UNL1        0.3003
      2 N         138.3250  141.6400  160.8080 N.2     1  UNL1       -0.0273
      3 C         137.7053  140.3101  160.4963 C.cat   1  UNL1        0.4670
      4 N         137.3818  139.9475  159.0771 N.2     1  UNL1        0.0298
      5 C         137.6779  140.9149  157.9698 C.2     1  UNL1        0.3719
      6 N         137.4714  140.8361  156.4862 N.2     1  UNL1       -0.0339
      7 C         137.9634  142.1173  155.8810 C.2     1  UNL1        0.2323
      8 C         138.4740  142.9881  156.9906 C.2     1  UNL1        0.0474
      9 C         138.2976  142.2449  158.2815 C.3     1  UNL1        0.2316
     10 N         137.4092  139.3426  161.6038 N.pl3   1  UNL1       -0.1922
     11 H         136.7201  138.6501  161.4814 H       1  UNL1        0.2523
     12 C         138.1629  139.4301  162.8977 C.ar    1  UNL1        0.1095
     13 C         139.1400  138.3548  163.2707 C.ar    1  UNL1        0.0325
     14 C         139.8938  138.4423  164.5646 C.ar    1  UNL1        0.0172
     15 C         139.6704  139.6051  165.4855 C.ar    1  UNL1        0.0481
     16 C         138.6934  140.6804  165.1125 C.ar    1  UNL1        0.0172
     17 C         137.9396  140.5928  163.8186 C.ar    1  UNL1        0.0325
     18 N         140.4242  139.6927  166.7795 N.pl3   1  UNL1       -0.3046
     19 C         141.9101  139.4886  166.7971 C.3     1  UNL1        0.1081
     20 C         142.6639  139.5761  168.0910 C.3     1  UNL1        0.0938
     21 N         141.9317  139.8679  169.3672 N.3     1  UNL1       -0.2686
     22 C         142.6855  139.9555  170.6611 C.3     1  UNL1        0.0897
     23 C         140.4457  140.0720  169.3496 C.3     1  UNL1        0.0938
     24 C         139.6920  139.9844  168.0557 C.3     1  UNL1        0.1081
     25 O         139.2408  143.9374  160.0124 O.3     1  UNL1       -0.4266
     26 C         141.9393  143.8756  162.9216 C.ar    1  UNL1        0.0536
     27 C         141.2111  144.6225  163.9996 C.ar    1  UNL1        0.0149
     28 C         139.8263  145.1409  163.7485 C.ar    1  UNL1        0.0044
     29 C         139.1694  144.9126  162.4194 C.ar    1  UNL1        0.0377
     30 C         139.8976  144.1658  161.3415 C.ar    1  UNL1        0.1495
     31 C         141.2825  143.6472  161.5925 C.ar    1  UNL1        0.0522
     32 C         143.5305  141.9188  163.5456 C.2     1  UNL1        0.2496
     33 O         142.3518  140.9992  163.6673 O.2     1  UNL1       -0.2698
     34 N         143.3243  143.3570  163.1728 N.am    1  UNL1       -0.2803
     35 H         144.0979  143.9607  163.0929 H       1  UNL1        0.1552
     36 C         145.1222  139.9608  164.1643 C.2     1  UNL1        0.0048
     37 C         144.9155  141.4003  163.7968 C.2     1  UNL1        0.0580
@<TRIPOS>BOND
     1    36    37    2
     2    37    32    1
     3    32    33    2
     4    32    34   am
     5    34    26    1
     6    26    27   ar
     7    27    28   ar
     8    28    29   ar
     9    29    30   ar
    10    30    25    1
    11    25     1    1
    12     1     2    2
    13     2     3    1
    14     3    10    1
    15    10    12    1
    16    12    13   ar
    17    13    14   ar
    18    14    15   ar
    19    15    18    1
    20    18    19    1
    21    19    20    1
    22    20    21    1
    23    21    22    1
    24    21    23    1
    25    23    24    1
    26    15    16   ar
    27    16    17   ar
    28     3     4    2
    29     4     5    1
    30     5     6    2
    31     6     7    1
    32     7     8    2
    33     8     9    1
    34    30    31   ar
    35    31    26   ar
    36     9     1    1
    37    17    12   ar
    38     9     5    1
    39    24    18    1
    40    34    35    1
    41    10    11    1
@<TRIPOS>MOLECULE
*****
 37 41 0 0 0
SMALL
GASTEIGER

@<TRIPOS>ATOM
      1 C         141.7808  140.5561  167.5325 C.2     1  UNL1        0.3003
      2 N         140.7144  139.9390  166.6769 N.2     1  UNL1       -0.0273
      3 C         139.3925  139.5654  167.2791 C.cat   1  UNL1        0.4670
      4 N         139.1368  139.8088  168.7370 N.2     1  UNL1        0.0298
      5 C         140.2032  140.4259  169.5926 C.2     1  UNL1        0.3719
      6 N         140.2398  140.7829  171.0491 N.2     1  UNL1       -0.0339
      7 C         141.5845  141.3771  171.3469 C.2     1  UNL1        0.2323
      8 C         142.3789  141.3874  170.0746 C.2     1  UNL1        0.0474
      9 C         141.5252  140.7995  168.9904 C.3     1  UNL1        0.2316
     10 N         138.3261  138.9484  166.4234 N.pl3   1  UNL1       -0.1922
     11 H         137.5684  138.4799  166.8426 H       1  UNL1        0.2523
     12 C         138.4141  139.0451  164.9291 C.ar    1  UNL1        0.1095
     13 C         138.0584  140.3281  164.2383 C.ar    1  UNL1        0.0325
     14 C         138.1464  140.4248  162.7440 C.ar    1  UNL1        0.0172
     15 C         138.5902  139.2385  161.9405 C.ar    1  UNL1        0.0481
     16 C         138.9460  137.9555  162.6313 C.ar    1  UNL1        0.0172
     17 C         138.8579  137.8587  164.1256 C.ar    1  UNL1        0.0325
     18 N         138.6783  139.3351  160.4462 N.pl3   1  UNL1       -0.3046
     19 C         137.8510  140.3469  159.7101 C.3     1  UNL1        0.1081
     20 C         137.9390  140.4436  158.2158 C.3     1  UNL1        0.0938
     21 N         138.8543  139.5285  157.4577 N.3     1  UNL1       -0.2686
     22 C         138.9423  139.6252  155.9634 C.3     1  UNL1        0.0897
     23 C         139.6816  138.5167  158.1938 C.3     1  UNL1        0.0938
     24 C         139.5936  138.4200  159.6881 C.3     1  UNL1        0.1081
     25 O         143.1028  140.9297  166.9302 O.3     1  UNL1       -0.4266
     26 C         142.4893  142.0311  163.1673 C.ar    1  UNL1        0.0536
     27 C         143.5369  141.2226  162.4608 C.ar    1  UNL1        0.0149
     28 C         144.4397  140.3166  163.2442 C.ar    1  UNL1        0.0044
     29 C         144.2951  140.2189  164.7341 C.ar    1  UNL1        0.0377
     30 C         143.2475  141.0273  165.4404 C.ar    1  UNL1        0.1495
     31 C         142.3446  141.9335  164.6571 C.ar    1  UNL1        0.0522
     32 C         142.1016  144.2497  161.8719 C.2     1  UNL1        0.2496
     33 O         143.5198  144.6560  162.1435 O.2     1  UNL1       -0.2698
     34 N         141.5864  142.9373  162.3838 N.am    1  UNL1       -0.2803
     35 H         140.6556  142.6706  162.2056 H       1  UNL1        0.1552
     36 C         140.0552  145.8471  161.7699 C.2     1  UNL1        0.0048
     37 C         141.1988  145.1558  161.0885 C.2     1  UNL1        0.0580
@<TRIPOS>BOND
     1    36    37    2
     2    37    32    1
     3    32    33    2
     4    32    34   am
     5    34    26    1
     6    26    27   ar
     7    27    28   ar
     8    28    29   ar
     9    29    30   ar
    10    30    25    1
    11    25     1    1
    12     1     2    2
    13     2     3    1
    14     3    10    1
    15    10    12    1
    16    12    13   ar
    17    13    14   ar
    18    14    15   ar
    19    15    18    1
    20    18    19    1
    21    19    20    1
    22    20    21    1
    23    21    22    1
    24    21    23    1
    25    23    24    1
    26    15    16   ar
    27    16    17   ar
    28     3     4    2
    29     4     5    1
    30     5     6    2
    31     6     7    1
    32     7     8    2
    33     8     9    1
    34    30    31   ar
    35    31    26   ar
    36     9     1    1
    37    17    12   ar
    38     9     5    1
    39    24    18    1
    40    34    35    1
    41    10    11    1
@<TRIPOS>MOLECULE
*****
 37 41 0 0 0
SMALL
GASTEIGER

@<TRIPOS>ATOM
      1 C         141.0884  141.7394  167.5212 C.2     1  UNL1        0.3003
      2 N         140.1954  140.8765  166.6799 N.2     1  UNL1       -0.0273
      3 C         139.2814  139.8823  167.3326 C.cat   1  UNL1        0.4670
      4 N         139.2603  139.7511  168.8268 N.2     1  UNL1        0.0298
      5 C         140.1533  140.6140  169.6681 C.2     1  UNL1        0.3719
      6 N         140.3496  140.7085  171.1522 N.2     1  UNL1       -0.0339
      7 C         141.3850  141.7611  171.4166 C.2     1  UNL1        0.2323
      8 C         141.8286  142.3171  170.0960 C.2     1  UNL1        0.0474
      9 C         141.0674  141.6082  169.0153 C.3     1  UNL1        0.2316
     10 N         138.3883  139.0194  166.4912 N.pl3   1  UNL1       -0.1922
     11 H         137.7516  138.4036  166.9210 H       1  UNL1        0.2523
     12 C         138.4654  139.0946  164.9951 C.ar    1  UNL1        0.1095
     13 C         138.0036  140.3305  164.2815 C.ar    1  UNL1        0.0325
     14 C         138.0807  140.4058  162.7854 C.ar    1  UNL1        0.0172
     15 C         138.6196  139.2451  162.0028 C.ar    1  UNL1        0.0481
     16 C         139.0813  138.0091  162.7164 C.ar    1  UNL1        0.0172
     17 C         139.0042  137.9339  164.2125 C.ar    1  UNL1        0.0325
     18 N         138.6967  139.3202  160.5067 N.pl3   1  UNL1       -0.3046
     19 C         137.8765  140.3325  159.7634 C.3     1  UNL1        0.1081
     20 C         137.9535  140.4078  158.2672 C.3     1  UNL1        0.0938
     21 N         138.8508  139.4707  157.5145 N.3     1  UNL1       -0.2686
     22 C         138.9279  139.5459  156.0184 C.3     1  UNL1        0.0897
     23 C         139.6710  138.4584  158.2578 C.3     1  UNL1        0.0938
     24 C         139.5940  138.3831  159.7539 C.3     1  UNL1        0.1081
     25 O         142.0025  142.7336  166.8684 O.3     1  UNL1       -0.4266
     26 C         143.8928  140.4751  164.2084 C.ar    1  UNL1        0.0536
     27 C         145.0679  141.3476  163.8798 C.ar    1  UNL1        0.0149
     28 C         145.2211  142.6820  164.5473 C.ar    1  UNL1        0.0044
     29 C         144.1993  143.1441  165.5436 C.ar    1  UNL1        0.0377
     30 C         143.0243  142.2716  165.8722 C.ar    1  UNL1        0.1495
     31 C         142.8710  140.9371  165.2047 C.ar    1  UNL1        0.0522
     32 C         142.7970  138.9842  162.3846 C.2     1  UNL1        0.2496
     33 O         142.0076  140.1623  161.8958 O.2     1  UNL1       -0.2698
     34 N         143.7396  139.1406  163.5409 N.am    1  UNL1       -0.2803
     35 H         144.2577  138.3673  163.8616 H       1  UNL1        0.1552
     36 C         143.1308  137.4537  160.3119 C.2     1  UNL1        0.0048
     37 C         142.6438  137.6497  161.7170 C.2     1  UNL1        0.0580
@<TRIPOS>BOND
     1    36    37    2
     2    37    32    1
     3    32    33    2
     4    32    34   am
     5    34    26    1
     6    26    27   ar
     7    27    28   ar
     8    28    29   ar
     9    29    30   ar
    10    30    25    1
    11    25     1    1
    12     1     2    2
    13     2     3    1
    14     3    10    1
    15    10    12    1
    16    12    13   ar
    17    13    14   ar
    18    14    15   ar
    19    15    18    1
    20    18    19    1
    21    19    20    1
    22    20    21    1
    23    21    22    1
    24    21    23    1
    25    23    24    1
    26    15    16   ar
    27    16    17   ar
    28     3     4    2
    29     4     5    1
    30     5     6    2
    31     6     7    1
    32     7     8    2
    33     8     9    1
    34    30    31   ar
    35    31    26   ar
    36     9     1    1
    37    17    12   ar
    38     9     5    1
    39    24    18    1
    40    34    35    1
    41    10    11    1
@<TRIPOS>MOLECULE
*****
 37 41 0 0 0
SMALL
GASTEIGER

@<TRIPOS>ATOM
      1 C         142.6939  140.0478  166.7781 C.2     1  UNL1        0.3003
      2 N         143.2354  141.1145  165.8732 N.2     1  UNL1       -0.0273
      3 C         143.6509  142.4394  166.4405 C.cat   1  UNL1        0.4670
      4 N         143.5248  142.6977  167.9127 N.2     1  UNL1        0.0298
      5 C         142.9833  141.6310  168.8176 C.2     1  UNL1        0.3719
      6 N         142.7452  141.5965  170.2982 N.2     1  UNL1       -0.0339
      7 C         142.1826  140.2502  170.6459 C.2     1  UNL1        0.2323
      8 C         142.0730  139.4526  169.3802 C.2     1  UNL1        0.0474
      9 C         142.5679  140.3060  168.2503 C.3     1  UNL1        0.2316
     10 N         144.1924  143.5062  165.5355 N.pl3   1  UNL1       -0.1922
     11 H         144.9289  144.0837  165.8410 H       1  UNL1        0.2523
     12 C         143.6117  143.6931  164.1651 C.ar    1  UNL1        0.1095
     13 C         144.3440  143.1743  162.9632 C.ar    1  UNL1        0.0325
     14 C         143.7633  143.3612  161.5928 C.ar    1  UNL1        0.0172
     15 C         142.4504  144.0669  161.4244 C.ar    1  UNL1        0.0481
     16 C         141.7182  144.5856  162.6263 C.ar    1  UNL1        0.0172
     17 C         142.2989  144.3988  163.9967 C.ar    1  UNL1        0.0325
     18 N         141.8697  144.2538  160.0540 N.pl3   1  UNL1       -0.3046
     19 C         140.8740  145.3475  159.8043 C.3     1  UNL1        0.1081
     20 C         140.2932  145.5345  158.4340 C.3     1  UNL1        0.0938
     21 N         140.7082  144.6278  157.3135 N.3     1  UNL1       -0.2686
     22 C         140.1274  144.8148  155.9432 C.3     1  UNL1        0.0897
     23 C         141.7039  143.5341  157.5632 C.3     1  UNL1        0.0938
     24 C         142.2846  143.3470  158.9335 C.3     1  UNL1        0.1081
     25 O         142.2784  138.7228  166.2107 O.3     1  UNL1       -0.4266
     26 C         139.1539  139.7839  164.0059 C.ar    1  UNL1        0.0536
     27 C         138.8586  138.4965  163.2946 C.ar    1  UNL1        0.0149
     28 C         139.7032  137.2848  163.5555 C.ar    1  UNL1        0.0044
     29 C         140.8432  137.3601  164.5275 C.ar    1  UNL1        0.0377
     30 C         141.1385  138.6474  165.2387 C.ar    1  UNL1        0.1495
     31 C         140.2939  139.8593  164.9779 C.ar    1  UNL1        0.0522
     32 C         138.6689  141.9352  162.6324 C.2     1  UNL1        0.2496
     33 O         139.8732  141.6629  161.7806 O.2     1  UNL1       -0.2698
     34 N         138.3093  140.9957  163.7450 N.am    1  UNL1       -0.2803
     35 H         137.5188  141.1744  164.3041 H       1  UNL1        0.1552
     36 C         137.8648  144.3080  163.3205 C.2     1  UNL1        0.0048
     37 C         137.8242  143.1470  162.3715 C.2     1  UNL1        0.0580
@<TRIPOS>BOND
     1    36    37    2
     2    37    32    1
     3    32    33    2
     4    32    34   am
     5    34    26    1
     6    26    27   ar
     7    27    28   ar
     8    28    29   ar
     9    29    30   ar
    10    30    25    1
    11    25     1    1
    12     1     2    2
    13     2     3    1
    14     3    10    1
    15    10    12    1
    16    12    13   ar
    17    13    14   ar
    18    14    15   ar
    19    15    18    1
    20    18    19    1
    21    19    20    1
    22    20    21    1
    23    21    22    1
    24    21    23    1
    25    23    24    1
    26    15    16   ar
    27    16    17   ar
    28     3     4    2
    29     4     5    1
    30     5     6    2
    31     6     7    1
    32     7     8    2
    33     8     9    1
    34    30    31   ar
    35    31    26   ar
    36     9     1    1
    37    17    12   ar
    38     9     5    1
    39    24    18    1
    40    34    35    1
    41    10    11    1
@<TRIPOS>MOLECULE
*****
 37 41 0 0 0
SMALL
GASTEIGER

@<TRIPOS>ATOM
      1 C         140.1865  139.7531  167.2129 C.2     1  UNL1        0.3003
      2 N         141.2630  139.2826  166.2803 N.2     1  UNL1       -0.0273
      3 C         142.6628  139.0941  166.7849 C.cat   1  UNL1        0.4670
      4 N         142.9863  139.3759  168.2223 N.2     1  UNL1        0.0298
      5 C         141.9097  139.8464  169.1549 C.2     1  UNL1        0.3719
      6 N         141.9289  140.2012  170.6122 N.2     1  UNL1       -0.0339
      7 C         140.5407  140.6090  171.0082 C.2     1  UNL1        0.2323
      8 C         139.6637  140.5063  169.7956 C.2     1  UNL1        0.0474
      9 C         140.5098  140.0349  168.6502 C.3     1  UNL1        0.2316
     10 N         143.7393  138.6236  165.8522 N.pl3   1  UNL1       -0.1922
     11 H         144.4057  137.9677  166.1605 H       1  UNL1        0.2523
     12 C         143.8006  139.1525  164.4499 C.ar    1  UNL1        0.1095
     13 C         144.6621  140.3388  164.1327 C.ar    1  UNL1        0.0325
     14 C         144.7234  140.8677  162.7304 C.ar    1  UNL1        0.0172
     15 C         143.9232  140.2104  161.6453 C.ar    1  UNL1        0.0481
     16 C         143.0617  139.0241  161.9624 C.ar    1  UNL1        0.0172
     17 C         143.0004  138.4952  163.3648 C.ar    1  UNL1        0.0325
     18 N         143.9844  140.7393  160.2429 N.pl3   1  UNL1       -0.3046
     19 C         144.4014  142.1585  159.9942 C.3     1  UNL1        0.1081
     20 C         144.4626  142.6874  158.5919 C.3     1  UNL1        0.0938
     21 N         144.1068  141.7971  157.4383 N.3     1  UNL1       -0.2686
     22 C         144.1681  142.3261  156.0360 C.3     1  UNL1        0.0897
     23 C         143.6898  140.3779  157.6871 C.3     1  UNL1        0.0938
     24 C         143.6286  139.8489  159.0894 C.3     1  UNL1        0.1081
     25 O         138.7866  139.9416  166.7082 O.3     1  UNL1       -0.4266
     26 C         138.2046  141.9333  163.3252 C.ar    1  UNL1        0.0536
     27 C         138.0624  140.8016  162.3509 C.ar    1  UNL1        0.0149
     28 C         138.1616  139.3834  162.8290 C.ar    1  UNL1        0.0044
     29 C         138.4030  139.0967  164.2815 C.ar    1  UNL1        0.0377
     30 C         138.5452  140.2283  165.2557 C.ar    1  UNL1        0.1495
     31 C         138.4460  141.6466  164.7776 C.ar    1  UNL1        0.0522
     32 C         139.3459  144.1820  162.7002 C.2     1  UNL1        0.2496
     33 O         140.6856  143.5942  163.0316 O.2     1  UNL1       -0.2698
     34 N         138.1055  143.3516  162.8470 N.am    1  UNL1       -0.2803
     35 H         137.2262  143.7374  162.6296 H       1  UNL1        0.1552
     36 C         140.0241  146.0418  161.0176 C.2     1  UNL1        0.0048
     37 C         139.2468  145.6003  162.2220 C.2     1  UNL1        0.0580
@<TRIPOS>BOND
     1    36    37    2
     2    37    32    1
     3    32    33    2
     4    32    34   am
     5    34    26    1
     6    26    27   ar
     7    27    28   ar
     8    28    29   ar
     9    29    30   ar
    10    30    25    1
    11    25     1    1
    12     1     2    2
    13     2     3    1
    14     3    10    1
    15    10    12    1
    16    12    13   ar
    17    13    14   ar
    18    14    15   ar
    19    15    18    1
    20    18    19    1
    21    19    20    1
    22    20    21    1
    23    21    22    1
    24    21    23    1
    25    23    24    1
    26    15    16   ar
    27    16    17   ar
    28     3     4    2
    29     4     5    1
    30     5     6    2
    31     6     7    1
    32     7     8    2
    33     8     9    1
    34    30    31   ar
    35    31    26   ar
    36     9     1    1
    37    17    12   ar
    38     9     5    1
    39    24    18    1
    40    34    35    1
    41    10    11    1
@<TRIPOS>MOLECULE
*****
 37 41 0 0 0
SMALL
GASTEIGER

@<TRIPOS>ATOM
      1 C         140.8219  141.8903  167.2530 C.2     1  UNL1        0.3003
      2 N         141.9504  142.3069  166.3571 N.2     1  UNL1       -0.0273
      3 C         143.2811  142.6698  166.9464 C.cat   1  UNL1        0.4670
      4 N         143.4834  142.6161  168.4318 N.2     1  UNL1        0.0298
      5 C         142.3549  142.1995  169.3277 C.2     1  UNL1        0.3719
      6 N         142.2575  142.0533  170.8174 N.2     1  UNL1       -0.0339
      7 C         140.8666  141.6001  171.1487 C.2     1  UNL1        0.2323
      8 C         140.1043  141.4661  169.8638 C.2     1  UNL1        0.0474
      9 C         141.0241  141.8365  168.7384 C.3     1  UNL1        0.2316
     10 N         144.4097  143.0865  166.0503 N.pl3   1  UNL1       -0.1922
     11 H         145.2708  143.3631  166.4394 H       1  UNL1        0.2523
     12 C         144.2263  143.0818  164.5616 C.ar    1  UNL1        0.1095
     13 C         144.6261  141.8783  163.7605 C.ar    1  UNL1        0.0325
     14 C         144.4427  141.8736  162.2717 C.ar    1  UNL1        0.0172
     15 C         143.8595  143.0724  161.5841 C.ar    1  UNL1        0.0481
     16 C         143.4597  144.2759  162.3852 C.ar    1  UNL1        0.0172
     17 C         143.6431  144.2806  163.8740 C.ar    1  UNL1        0.0325
     18 N         143.6761  143.0678  160.0953 N.pl3   1  UNL1       -0.3046
     19 C         144.7137  142.4381  159.2138 C.3     1  UNL1        0.1081
     20 C         144.5303  142.4335  157.7251 C.3     1  UNL1        0.0938
     21 N         143.3094  143.0585  157.1179 N.3     1  UNL1       -0.2686
     22 C         143.1261  143.0538  155.6292 C.3     1  UNL1        0.0897
     23 C         142.2719  143.6881  157.9994 C.3     1  UNL1        0.0938
     24 C         142.4552  143.6928  159.4881 C.3     1  UNL1        0.1081
     25 O         139.4911  141.5273  166.6637 O.3     1  UNL1       -0.4266
     26 C         139.7498  138.5289  164.0767 C.ar    1  UNL1        0.0536
     27 C         138.8999  137.4954  164.7548 C.ar    1  UNL1        0.0149
     28 C         138.2472  137.8059  166.0691 C.ar    1  UNL1        0.0044
     29 C         138.4442  139.1499  166.7054 C.ar    1  UNL1        0.0377
     30 C         139.2940  140.1834  166.0274 C.ar    1  UNL1        0.1495
     31 C         139.9468  139.8729  164.7130 C.ar    1  UNL1        0.0522
     32 C         141.8943  138.0859  162.6786 C.2     1  UNL1        0.2496
     33 O         142.7333  138.2640  163.9092 O.2     1  UNL1       -0.2698
     34 N         140.4026  138.2184  162.7624 N.am    1  UNL1       -0.2803
     35 H         139.8519  138.1015  161.9547 H       1  UNL1        0.1552
     36 C         143.9685  138.1858  161.1173 C.2     1  UNL1        0.0048
     37 C         142.5471  137.7754  161.3643 C.2     1  UNL1        0.0580
@<TRIPOS>BOND
     1    36    37    2
     2    37    32    1
     3    32    33    2
     4    32    34   am
     5    34    26    1
     6    26    27   ar
     7    27    28   ar
     8    28    29   ar
     9    29    30   ar
    10    30    25    1
    11    25     1    1
    12     1     2    2
    13     2     3    1
    14     3    10    1
    15    10    12    1
    16    12    13   ar
    17    13    14   ar
    18    14    15   ar
    19    15    18    1
    20    18    19    1
    21    19    20    1
    22    20    21    1
    23    21    22    1
    24    21    23    1
    25    23    24    1
    26    15    16   ar
    27    16    17   ar
    28     3     4    2
    29     4     5    1
    30     5     6    2
    31     6     7    1
    32     7     8    2
    33     8     9    1
    34    30    31   ar
    35    31    26   ar
    36     9     1    1
    37    17    12   ar
    38     9     5    1
    39    24    18    1
    40    34    35    1
    41    10    11    1
@<TRIPOS>MOLECULE
*****
 37 41 0 0 0
SMALL
GASTEIGER

@<TRIPOS>ATOM
      1 C         141.0351  141.9863  167.6324 C.2     1  UNL1        0.3003
      2 N         141.7837  140.9317  166.8726 N.2     1  UNL1       -0.0273
      3 C         142.4691  139.8201  167.6104 C.cat   1  UNL1        0.4670
      4 N         142.4060  139.7630  169.1080 N.2     1  UNL1        0.0298
      5 C         141.6574  140.8177  169.8678 C.2     1  UNL1        0.3719
      6 N         141.4235  141.0219  171.3353 N.2     1  UNL1       -0.0339
      7 C         140.5935  142.2598  171.5044 C.2     1  UNL1        0.2323
      8 C         140.3144  142.8206  170.1415 C.2     1  UNL1        0.0474
      9 C         140.9719  141.9293  169.1299 C.3     1  UNL1        0.2316
     10 N         143.2178  138.7654  166.8505 N.pl3   1  UNL1       -0.1922
     11 H         143.7004  138.0580  167.3362 H       1  UNL1        0.2523
     12 C         143.2311  138.7886  165.3508 C.ar    1  UNL1        0.1095
     13 C         142.1394  138.1069  164.5804 C.ar    1  UNL1        0.0325
     14 C         142.1527  138.1301  163.0806 C.ar    1  UNL1        0.0172
     15 C         143.2577  138.8350  162.3512 C.ar    1  UNL1        0.0481
     16 C         144.3495  139.5167  163.1216 C.ar    1  UNL1        0.0172
     17 C         144.3362  139.4934  164.6214 C.ar    1  UNL1        0.0325
     18 N         143.2711  138.8583  160.8514 N.pl3   1  UNL1       -0.3046
     19 C         142.7249  137.6946  160.0785 C.3     1  UNL1        0.1081
     20 C         142.7383  137.7178  158.5787 C.3     1  UNL1        0.0938
     21 N         143.2978  138.9046  157.8520 N.3     1  UNL1       -0.2686
     22 C         143.3112  138.9278  156.3522 C.3     1  UNL1        0.0897
     23 C         143.8440  140.0683  158.6249 C.3     1  UNL1        0.0938
     24 C         143.8307  140.0451  160.1247 C.3     1  UNL1        0.1081
     25 O         140.3496  143.0980  166.8945 O.3     1  UNL1       -0.4266
     26 C         139.9413  141.8709  163.1426 C.ar    1  UNL1        0.0536
     27 C         140.3044  143.1196  162.3949 C.ar    1  UNL1        0.0149
     28 C         140.6825  144.3610  163.1470 C.ar    1  UNL1        0.0044
     29 C         140.6976  144.3539  164.6470 C.ar    1  UNL1        0.0377
     30 C         140.3345  143.1052  165.3947 C.ar    1  UNL1        0.1495
     31 C         139.9563  141.8637  164.6425 C.ar    1  UNL1        0.0522
     32 C         138.1232  140.3543  162.0727 C.2     1  UNL1        0.2496
     33 O         137.0614  141.3206  162.5073 O.2     1  UNL1       -0.2698
     34 N         139.5631  140.6295  162.3903 N.am    1  UNL1       -0.2803
     35 H         140.2600  139.9953  162.1051 H       1  UNL1        0.1552
     36 C         138.7576  138.0267  161.1084 C.2     1  UNL1        0.0048
     37 C         137.7451  139.1129  161.3205 C.2     1  UNL1        0.0580
@<TRIPOS>BOND
     1    36    37    2
     2    37    32    1
     3    32    33    2
     4    32    34   am
     5    34    26    1
     6    26    27   ar
     7    27    28   ar
     8    28    29   ar
     9    29    30   ar
    10    30    25    1
    11    25     1    1
    12     1     2    2
    13     2     3    1
    14     3    10    1
    15    10    12    1
    16    12    13   ar
    17    13    14   ar
    18    14    15   ar
    19    15    18    1
    20    18    19    1
    21    19    20    1
    22    20    21    1
    23    21    22    1
    24    21    23    1
    25    23    24    1
    26    15    16   ar
    27    16    17   ar
    28     3     4    2
    29     4     5    1
    30     5     6    2
    31     6     7    1
    32     7     8    2
    33     8     9    1
    34    30    31   ar
    35    31    26   ar
    36     9     1    1
    37    17    12   ar
    38     9     5    1
    39    24    18    1
    40    34    35    1
    41    10    11    1
