@<TRIPOS>MOLECULE
*****
 35 38 0 0 0
SMALL
GASTEIGER

@<TRIPOS>ATOM
      1 C         139.0294  139.0176  166.2822 C.ar    1  UNL1        0.1534
      2 C         138.9317  138.1921  165.0337 C.ar    1  UNL1        0.0591
      3 C         140.0804  138.1510  164.0699 C.ar    1  UNL1        0.1072
      4 N         139.9826  137.3254  162.8213 N.ar    1  UNL1       -0.1477
      5 N         141.1313  137.2842  161.8576 N.ar    1  UNL1       -0.1421
      6 C         142.3777  138.0687  162.1424 C.ar    1  UNL1        0.1690
      7 C         142.4754  138.8943  163.3910 C.ar    1  UNL1        0.0740
      8 C         141.3267  138.9354  164.3547 C.ar    1  UNL1        0.0359
      9 C         141.4244  139.7609  165.6032 C.ar    1  UNL1        0.0204
     10 C         140.2758  139.8021  166.5670 C.ar    1  UNL1        0.0825
     11 N         140.3735  140.6277  167.8156 N.pl3   1  UNL1       -0.3016
     12 C         140.4551  139.9560  169.1543 C.3     1  UNL1        0.1162
     13 C         140.5528  140.7815  170.4029 C.3     1  UNL1        0.1722
     14 S         140.5690  142.2788  170.3127 S.O2    1  UNL1       -0.0066
     15 O         140.6196  143.7161  170.7389 O.2     1  UNL1       -0.1729
     16 O         140.6681  142.1063  171.7994 O.2     1  UNL1       -0.1729
     17 C         140.4874  142.9504  168.9740 C.3     1  UNL1        0.1722
     18 C         140.3897  142.1248  167.7254 C.3     1  UNL1        0.1162
     19 C         143.5264  138.0276  161.1787 C.2     1  UNL1        0.2635
     20 N         143.8465  136.7578  160.4471 N.am    1  UNL1       -0.3240
     21 O         144.3550  139.2562  160.9465 O.2     1  UNL1       -0.2686
     22 H         143.3027  135.9514  160.5994 H       1  UNL1        0.1453
     23 H         144.6004  136.7308  159.8145 H       1  UNL1        0.1453
     24 C         137.0397  137.8359  167.4631 C.3     1  UNL1        0.2525
     25 O         137.8807  139.0588  167.2460 O.3     1  UNL1       -0.4701
     26 N         143.7218  139.6787  163.6757 N.pl3   1  UNL1       -0.3094
     27 H         144.5795  139.2118  163.8011 H       1  UNL1        0.1523
     28 C         143.6616  141.1746  163.7696 C.ar    1  UNL1        0.0761
     29 C         144.3890  141.8868  164.8712 C.ar    1  UNL1        0.0166
     30 C         144.3288  143.3826  164.9651 C.ar    1  UNL1       -0.0028
     31 C         143.5411  144.1663  163.9574 C.ar    1  UNL1       -0.0195
     32 C         143.4808  145.6621  164.0513 C.3     1  UNL1        0.0311
     33 C         142.8136  143.4541  162.8557 C.ar    1  UNL1        0.0267
     34 C         142.8739  141.9582  162.7619 C.ar    1  UNL1        0.1531
     35 F         142.1465  141.2459  161.6603 F       1  UNL1       -0.2029
@<TRIPOS>BOND
     1    24    25    1
     2    25     1    1
     3     1     2   ar
     4     2     3   ar
     5     3     4   ar
     6     4     5   ar
     7     5     6   ar
     8     6    19    1
     9    19    20   am
    10    19    21    2
    11     6     7   ar
    12     7    26    1
    13    26    28    1
    14    28    29   ar
    15    29    30   ar
    16    30    31   ar
    17    31    32    1
    18    31    33   ar
    19    33    34   ar
    20    34    35    1
    21     7     8   ar
    22     8     9   ar
    23     9    10   ar
    24    10    11    1
    25    11    12    1
    26    12    13    1
    27    13    14    1
    28    14    15    2
    29    14    16    2
    30    14    17    1
    31    17    18    1
    32    10     1   ar
    33    18    11    1
    34     8     3   ar
    35    34    28   ar
    36    20    22    1
    37    20    23    1
    38    26    27    1
@<TRIPOS>MOLECULE
*****
 35 38 0 0 0
SMALL
GASTEIGER

@<TRIPOS>ATOM
      1 C         142.5820  138.7067  166.3460 C.ar    1  UNL1        0.1534
      2 C         142.6068  137.9291  165.0636 C.ar    1  UNL1        0.0591
      3 C         141.5996  138.2196  163.9907 C.ar    1  UNL1        0.1072
      4 N         141.6245  137.4420  162.7082 N.ar    1  UNL1       -0.1477
      5 N         140.6173  137.7325  161.6353 N.ar    1  UNL1       -0.1421
      6 C         139.5852  138.8007  161.8449 C.ar    1  UNL1        0.1690
      7 C         139.5604  139.5784  163.1273 C.ar    1  UNL1        0.0740
      8 C         140.5676  139.2878  164.2002 C.ar    1  UNL1        0.0359
      9 C         140.5428  140.0654  165.4826 C.ar    1  UNL1        0.0204
     10 C         141.5500  139.7749  166.5555 C.ar    1  UNL1        0.0825
     11 N         141.5251  140.5526  167.8380 N.pl3   1  UNL1       -0.3016
     12 C         142.4662  141.7038  168.0354 C.3     1  UNL1        0.1162
     13 C         142.4414  142.4814  169.3178 C.3     1  UNL1        0.1722
     14 S         141.4754  142.1079  170.4029 S.O2    1  UNL1       -0.0066
     15 O         140.7486  142.1378  171.7147 O.2     1  UNL1       -0.1729
     16 O         142.1641  143.2695  171.0558 O.2     1  UNL1       -0.1729
     17 C         140.5343  140.9567  170.2055 C.3     1  UNL1        0.1722
     18 C         140.5591  140.1790  168.9230 C.3     1  UNL1        0.1162
     19 C         138.5781  139.0913  160.7719 C.2     1  UNL1        0.2635
     20 N         139.0319  139.3321  159.3626 N.am    1  UNL1       -0.3240
     21 O         137.1171  139.1411  161.1083 O.2     1  UNL1       -0.2686
     22 H         139.9907  139.2994  159.1418 H       1  UNL1        0.1453
     23 H         138.3708  139.5228  158.6584 H       1  UNL1        0.1453
     24 C         144.5115  137.2411  167.2834 C.3     1  UNL1        0.2525
     25 O         143.5892  138.4162  167.4190 O.3     1  UNL1       -0.4701
     26 N         138.5284  140.6465  163.3368 N.pl3   1  UNL1       -0.3094
     27 H         137.6524  140.4158  163.7223 H       1  UNL1        0.1523
     28 C         138.8311  142.0663  162.9589 C.ar    1  UNL1        0.0761
     29 C         139.7680  142.3569  161.8242 C.ar    1  UNL1        0.0166
     30 C         140.0707  143.7766  161.4463 C.ar    1  UNL1       -0.0028
     31 C         139.4364  144.9057  162.2031 C.ar    1  UNL1       -0.0195
     32 C         139.7391  146.3254  161.8253 C.3     1  UNL1        0.0311
     33 C         138.4995  144.6151  163.3379 C.ar    1  UNL1        0.0267
     34 C         138.1968  143.1953  163.7158 C.ar    1  UNL1        0.1531
     35 F         137.2598  142.9047  164.8505 F       1  UNL1       -0.2029
@<TRIPOS>BOND
     1    24    25    1
     2    25     1    1
     3     1     2   ar
     4     2     3   ar
     5     3     4   ar
     6     4     5   ar
     7     5     6   ar
     8     6    19    1
     9    19    20   am
    10    19    21    2
    11     6     7   ar
    12     7    26    1
    13    26    28    1
    14    28    29   ar
    15    29    30   ar
    16    30    31   ar
    17    31    32    1
    18    31    33   ar
    19    33    34   ar
    20    34    35    1
    21     7     8   ar
    22     8     9   ar
    23     9    10   ar
    24    10    11    1
    25    11    12    1
    26    12    13    1
    27    13    14    1
    28    14    15    2
    29    14    16    2
    30    14    17    1
    31    17    18    1
    32    10     1   ar
    33    18    11    1
    34     8     3   ar
    35    34    28   ar
    36    20    22    1
    37    20    23    1
    38    26    27    1
@<TRIPOS>MOLECULE
*****
 35 38 0 0 0
SMALL
GASTEIGER

@<TRIPOS>ATOM
      1 C         139.2739  138.2980  164.0379 C.ar    1  UNL1        0.1534
      2 C         138.4495  138.1841  165.2858 C.ar    1  UNL1        0.0591
      3 C         138.8596  138.9222  166.5256 C.ar    1  UNL1        0.1072
      4 N         138.0352  138.8082  167.7736 N.ar    1  UNL1       -0.1477
      5 N         138.4454  139.5463  169.0134 N.ar    1  UNL1       -0.1421
      6 C         139.6800  140.3982  169.0052 C.ar    1  UNL1        0.1690
      7 C         140.5044  140.5121  167.7573 C.ar    1  UNL1        0.0740
      8 C         140.0942  139.7741  166.5175 C.ar    1  UNL1        0.0359
      9 C         140.9186  139.8879  165.2695 C.ar    1  UNL1        0.0204
     10 C         140.5084  139.1499  164.0298 C.ar    1  UNL1        0.0825
     11 N         141.3328  139.2638  162.7818 N.pl3   1  UNL1       -0.3016
     12 C         141.1400  140.4310  161.8595 C.3     1  UNL1        0.1162
     13 C         141.9644  140.5449  160.6115 C.3     1  UNL1        0.1722
     14 S         142.9817  139.4917  160.2859 S.O2    1  UNL1       -0.0066
     15 O         144.0623  138.7550  159.5513 O.2     1  UNL1       -0.1729
     16 O         143.1641  140.4030  159.1085 O.2     1  UNL1       -0.1729
     17 C         143.1745  138.3246  161.2082 C.3     1  UNL1        0.1722
     18 C         142.3501  138.2107  162.4562 C.3     1  UNL1        0.1162
     19 C         140.0901  141.1362  170.2450 C.2     1  UNL1        0.2635
     20 N         140.3999  140.3777  171.5015 N.am    1  UNL1       -0.3240
     21 O         140.1905  142.6327  170.2283 O.2     1  UNL1       -0.2686
     22 H         140.3340  139.3954  171.5124 H       1  UNL1        0.1453
     23 H         140.6691  140.8620  172.3152 H       1  UNL1        0.1453
     24 C         137.9630  138.2194  161.7962 C.3     1  UNL1        0.2525
     25 O         138.8637  137.5600  162.7981 O.3     1  UNL1       -0.4701
     26 N         141.7389  141.3640  167.7491 N.pl3   1  UNL1       -0.3094
     27 H         142.3458  141.3586  168.5243 H       1  UNL1        0.1523
     28 C         142.0488  142.2241  166.5599 C.ar    1  UNL1        0.0761
     29 C         143.4300  142.2254  165.9748 C.ar    1  UNL1        0.0166
     30 C         143.7399  143.0855  164.7856 C.ar    1  UNL1       -0.0028
     31 C         142.6686  143.9443  164.1815 C.ar    1  UNL1       -0.0195
     32 C         142.9786  144.8044  162.9923 C.3     1  UNL1        0.0311
     33 C         141.2875  143.9430  164.7666 C.ar    1  UNL1        0.0267
     34 C         140.9776  143.0829  165.9558 C.ar    1  UNL1        0.1531
     35 F         139.5964  143.0816  166.5410 F       1  UNL1       -0.2029
@<TRIPOS>BOND
     1    24    25    1
     2    25     1    1
     3     1     2   ar
     4     2     3   ar
     5     3     4   ar
     6     4     5   ar
     7     5     6   ar
     8     6    19    1
     9    19    20   am
    10    19    21    2
    11     6     7   ar
    12     7    26    1
    13    26    28    1
    14    28    29   ar
    15    29    30   ar
    16    30    31   ar
    17    31    32    1
    18    31    33   ar
    19    33    34   ar
    20    34    35    1
    21     7     8   ar
    22     8     9   ar
    23     9    10   ar
    24    10    11    1
    25    11    12    1
    26    12    13    1
    27    13    14    1
    28    14    15    2
    29    14    16    2
    30    14    17    1
    31    17    18    1
    32    10     1   ar
    33    18    11    1
    34     8     3   ar
    35    34    28   ar
    36    20    22    1
    37    20    23    1
    38    26    27    1
@<TRIPOS>MOLECULE
*****
 35 38 0 0 0
SMALL
GASTEIGER

@<TRIPOS>ATOM
      1 C         143.7174  142.3232  164.6344 C.ar    1  UNL1        0.1534
      2 C         143.6168  142.7341  166.0735 C.ar    1  UNL1        0.0591
      3 C         142.6322  142.0565  166.9799 C.ar    1  UNL1        0.1072
      4 N         142.5316  142.4675  168.4190 N.ar    1  UNL1       -0.1477
      5 N         141.5471  141.7899  169.3254 N.ar    1  UNL1       -0.1421
      6 C         140.6631  140.7014  168.7927 C.ar    1  UNL1        0.1690
      7 C         140.7638  140.2904  167.3536 C.ar    1  UNL1        0.0740
      8 C         141.7483  140.9680  166.4472 C.ar    1  UNL1        0.0359
      9 C         141.8489  140.5571  165.0081 C.ar    1  UNL1        0.0204
     10 C         142.8334  141.2347  164.1017 C.ar    1  UNL1        0.0825
     11 N         142.9340  140.8237  162.6626 N.pl3   1  UNL1       -0.3016
     12 C         141.9973  141.4096  161.6481 C.3     1  UNL1        0.1162
     13 C         142.0978  140.9987  160.2090 C.3     1  UNL1        0.1722
     14 S         143.1351  140.0018  159.7844 S.O2    1  UNL1       -0.0066
     15 O         143.9447  139.0996  158.9009 O.2     1  UNL1       -0.1729
     16 O         142.4796  140.2744  158.4631 O.2     1  UNL1       -0.1729
     17 C         144.0718  139.4158  160.7989 C.3     1  UNL1        0.1722
     18 C         143.9713  139.8268  162.2380 C.3     1  UNL1        0.1162
     19 C         139.6786  140.0238  169.6991 C.2     1  UNL1        0.2635
     20 N         140.0415  139.7480  171.1282 N.am    1  UNL1       -0.3240
     21 O         138.3313  139.6220  169.1764 O.2     1  UNL1       -0.2686
     22 H         140.9258  140.0117  171.4713 H       1  UNL1        0.1453
     23 H         139.3953  139.3033  171.7231 H       1  UNL1        0.1453
     24 C         144.2667  144.1587  162.8797 C.3     1  UNL1        0.2525
     25 O         144.7019  143.0008  163.7280 O.3     1  UNL1       -0.4701
     26 N         139.8798  139.2019  166.8209 N.pl3   1  UNL1       -0.3094
     27 H         139.6907  138.4078  167.3713 H       1  UNL1        0.1523
     28 C         139.2839  139.3233  165.4497 C.ar    1  UNL1        0.0761
     29 C         138.4272  140.5057  165.1062 C.ar    1  UNL1        0.0166
     30 C         137.8313  140.6271  163.7351 C.ar    1  UNL1       -0.0028
     31 C         138.0922  139.5661  162.7073 C.ar    1  UNL1       -0.0195
     32 C         137.4963  139.6875  161.3361 C.3     1  UNL1        0.0311
     33 C         138.9489  138.3837  163.0507 C.ar    1  UNL1        0.0267
     34 C         139.5448  138.2623  164.4220 C.ar    1  UNL1        0.1531
     35 F         140.4015  137.0799  164.7655 F       1  UNL1       -0.2029
@<TRIPOS>BOND
     1    24    25    1
     2    25     1    1
     3     1     2   ar
     4     2     3   ar
     5     3     4   ar
     6     4     5   ar
     7     5     6   ar
     8     6    19    1
     9    19    20   am
    10    19    21    2
    11     6     7   ar
    12     7    26    1
    13    26    28    1
    14    28    29   ar
    15    29    30   ar
    16    30    31   ar
    17    31    32    1
    18    31    33   ar
    19    33    34   ar
    20    34    35    1
    21     7     8   ar
    22     8     9   ar
    23     9    10   ar
    24    10    11    1
    25    11    12    1
    26    12    13    1
    27    13    14    1
    28    14    15    2
    29    14    16    2
    30    14    17    1
    31    17    18    1
    32    10     1   ar
    33    18    11    1
    34     8     3   ar
    35    34    28   ar
    36    20    22    1
    37    20    23    1
    38    26    27    1
@<TRIPOS>MOLECULE
*****
 35 38 0 0 0
SMALL
GASTEIGER

@<TRIPOS>ATOM
      1 C         142.5156  138.5929  163.1014 C.ar    1  UNL1        0.1534
      2 C         143.0172  138.5278  164.5135 C.ar    1  UNL1        0.0591
      3 C         142.3456  139.3333  165.5859 C.ar    1  UNL1        0.1072
      4 N         142.8473  139.2682  166.9981 N.ar    1  UNL1       -0.1477
      5 N         142.1756  140.0737  168.0705 N.ar    1  UNL1       -0.1421
      6 C         141.0023  140.9443  167.7307 C.ar    1  UNL1        0.1690
      7 C         140.5007  141.0094  166.3186 C.ar    1  UNL1        0.0740
      8 C         141.1723  140.2039  165.2462 C.ar    1  UNL1        0.0359
      9 C         140.6707  140.2690  163.8341 C.ar    1  UNL1        0.0204
     10 C         141.3423  139.4635  162.7617 C.ar    1  UNL1        0.0825
     11 N         140.8407  139.5286  161.3495 N.pl3   1  UNL1       -0.3016
     12 C         139.9654  138.4348  160.8134 C.3     1  UNL1        0.1162
     13 C         139.4637  138.4998  159.4013 C.3     1  UNL1        0.1722
     14 S         139.8373  139.6588  158.5253 S.O2    1  UNL1       -0.0066
     15 O         139.9165  140.5447  157.3174 O.2     1  UNL1       -0.1729
     16 O         138.9896  138.8726  157.5697 O.2     1  UNL1       -0.1729
     17 C         140.7125  140.7526  159.0614 C.3     1  UNL1        0.1722
     18 C         141.2142  140.6875  160.4736 C.3     1  UNL1        0.1162
     19 C         140.3306  141.7498  168.8031 C.2     1  UNL1        0.2635
     20 N         139.6552  141.0571  169.9495 N.am    1  UNL1       -0.3240
     21 O         140.3343  143.2480  168.7292 O.2     1  UNL1       -0.2686
     22 H         139.6528  140.0738  169.9980 H       1  UNL1        0.1453
     23 H         139.2144  141.5858  170.6533 H       1  UNL1        0.1453
     24 C         144.1709  138.4415  161.1047 C.3     1  UNL1        0.2525
     25 O         143.1873  137.7874  162.0290 O.3     1  UNL1       -0.4701
     26 N         139.3274  141.8800  165.9789 N.pl3   1  UNL1       -0.3094
     27 H         138.4633  141.7394  166.4293 H       1  UNL1        0.1523
     28 C         139.4705  142.9648  164.9529 C.ar    1  UNL1        0.0761
     29 C         140.7042  143.8178  164.9304 C.ar    1  UNL1        0.0166
     30 C         140.8474  144.9026  163.9045 C.ar    1  UNL1       -0.0028
     31 C         139.7569  145.1345  162.9009 C.ar    1  UNL1       -0.0195
     32 C         139.9001  146.2193  161.8749 C.3     1  UNL1        0.0311
     33 C         138.5233  144.2815  162.9233 C.ar    1  UNL1        0.0267
     34 C         138.3801  143.1966  163.9493 C.ar    1  UNL1        0.1531
     35 F         137.1465  142.3436  163.9717 F       1  UNL1       -0.2029
@<TRIPOS>BOND
     1    24    25    1
     2    25     1    1
     3     1     2   ar
     4     2     3   ar
     5     3     4   ar
     6     4     5   ar
     7     5     6   ar
     8     6    19    1
     9    19    20   am
    10    19    21    2
    11     6     7   ar
    12     7    26    1
    13    26    28    1
    14    28    29   ar
    15    29    30   ar
    16    30    31   ar
    17    31    32    1
    18    31    33   ar
    19    33    34   ar
    20    34    35    1
    21     7     8   ar
    22     8     9   ar
    23     9    10   ar
    24    10    11    1
    25    11    12    1
    26    12    13    1
    27    13    14    1
    28    14    15    2
    29    14    16    2
    30    14    17    1
    31    17    18    1
    32    10     1   ar
    33    18    11    1
    34     8     3   ar
    35    34    28   ar
    36    20    22    1
    37    20    23    1
    38    26    27    1
@<TRIPOS>MOLECULE
*****
 35 38 0 0 0
SMALL
GASTEIGER

@<TRIPOS>ATOM
      1 C         144.0330  142.8880  164.1483 C.ar    1  UNL1        0.1534
      2 C         144.0750  143.2497  165.6034 C.ar    1  UNL1        0.0591
      3 C         143.5353  142.2973  166.6289 C.ar    1  UNL1        0.1072
      4 N         143.5773  142.6591  168.0841 N.ar    1  UNL1       -0.1477
      5 N         143.0376  141.7067  169.1096 N.ar    1  UNL1       -0.1421
      6 C         142.4559  140.3925  168.6799 C.ar    1  UNL1        0.1690
      7 C         142.4139  140.0307  167.2248 C.ar    1  UNL1        0.0740
      8 C         142.9536  140.9832  166.1993 C.ar    1  UNL1        0.0359
      9 C         142.9116  140.6214  164.7442 C.ar    1  UNL1        0.0204
     10 C         143.4513  141.5738  163.7187 C.ar    1  UNL1        0.0825
     11 N         143.4093  141.2120  162.2636 N.pl3   1  UNL1       -0.3016
     12 C         144.2896  140.1176  161.7372 C.3     1  UNL1        0.1162
     13 C         144.2476  139.7558  160.2821 C.3     1  UNL1        0.1722
     14 S         143.3253  140.4884  159.3533 S.O2    1  UNL1       -0.0066
     15 O         142.6241  140.8894  158.0894 O.2     1  UNL1       -0.1729
     16 O         143.9621  139.5332  158.3880 O.2     1  UNL1       -0.1729
     17 C         142.4449  141.5829  159.8798 C.3     1  UNL1        0.1722
     18 C         142.4869  141.9447  161.3349 C.3     1  UNL1        0.1162
     19 C         141.9162  139.4401  169.7054 C.2     1  UNL1        0.2635
     20 N         142.8156  138.4060  170.3153 N.am    1  UNL1       -0.3240
     21 O         140.4773  139.5217  170.1210 O.2     1  UNL1       -0.2686
     22 H         143.7600  138.3524  170.0426 H       1  UNL1        0.1453
     23 H         142.4614  137.7809  170.9884 H       1  UNL1        0.1453
     24 C         143.8295  145.1050  162.8091 C.3     1  UNL1        0.2525
     25 O         144.5727  143.8404  163.1228 O.3     1  UNL1       -0.4701
     26 N         141.8322  138.7166  166.7952 N.pl3   1  UNL1       -0.3094
     27 H         142.0839  137.8894  167.2661 H       1  UNL1        0.1523
     28 C         140.8671  138.6627  165.6482 C.ar    1  UNL1        0.0761
     29 C         141.1718  137.8119  164.4510 C.ar    1  UNL1        0.0166
     30 C         140.2068  137.7579  163.3039 C.ar    1  UNL1       -0.0028
     31 C         138.9369  138.5548  163.3541 C.ar    1  UNL1       -0.0195
     32 C         137.9719  138.5009  162.2070 C.3     1  UNL1        0.0311
     33 C         138.6322  139.4056  164.5513 C.ar    1  UNL1        0.0267
     34 C         139.5973  139.4596  165.6983 C.ar    1  UNL1        0.1531
     35 F         139.2926  140.3104  166.8955 F       1  UNL1       -0.2029
@<TRIPOS>BOND
     1    24    25    1
     2    25     1    1
     3     1     2   ar
     4     2     3   ar
     5     3     4   ar
     6     4     5   ar
     7     5     6   ar
     8     6    19    1
     9    19    20   am
    10    19    21    2
    11     6     7   ar
    12     7    26    1
    13    26    28    1
    14    28    29   ar
    15    29    30   ar
    16    30    31   ar
    17    31    32    1
    18    31    33   ar
    19    33    34   ar
    20    34    35    1
    21     7     8   ar
    22     8     9   ar
    23     9    10   ar
    24    10    11    1
    25    11    12    1
    26    12    13    1
    27    13    14    1
    28    14    15    2
    29    14    16    2
    30    14    17    1
    31    17    18    1
    32    10     1   ar
    33    18    11    1
    34     8     3   ar
    35    34    28   ar
    36    20    22    1
    37    20    23    1
    38    26    27    1
@<TRIPOS>MOLECULE
*****
 35 38 0 0 0
SMALL
GASTEIGER

@<TRIPOS>ATOM
      1 C         143.7955  139.4916  164.1657 C.ar    1  UNL1        0.1534
      2 C         143.9763  138.7528  165.4584 C.ar    1  UNL1        0.0591
      3 C         143.2305  139.1914  166.6837 C.ar    1  UNL1        0.1072
      4 N         143.4114  138.4524  167.9765 N.ar    1  UNL1       -0.1477
      5 N         142.6655  138.8910  169.2018 N.ar    1  UNL1       -0.1421
      6 C         141.7387  140.0686  169.1343 C.ar    1  UNL1        0.1690
      7 C         141.5578  140.8074  167.8415 C.ar    1  UNL1        0.0740
      8 C         142.3037  140.3688  166.6162 C.ar    1  UNL1        0.0359
      9 C         142.1228  141.1077  165.3235 C.ar    1  UNL1        0.0204
     10 C         142.8687  140.6691  164.0982 C.ar    1  UNL1        0.0825
     11 N         142.6878  141.4081  162.8054 N.pl3   1  UNL1       -0.3016
     12 C         141.4134  141.2591  162.0284 C.3     1  UNL1        0.1162
     13 C         141.2324  141.9980  160.7356 C.3     1  UNL1        0.1722
     14 S         142.3259  142.8859  160.2198 S.O2    1  UNL1       -0.0066
     15 O         143.0660  143.8367  159.3264 O.2     1  UNL1       -0.1729
     16 O         141.3085  143.0671  159.1326 O.2     1  UNL1       -0.1729
     17 C         143.6003  143.0349  160.9968 C.3     1  UNL1        0.1722
     18 C         143.7812  142.2959  162.2896 C.3     1  UNL1        0.1162
     19 C         140.9928  140.5072  170.3595 C.2     1  UNL1        0.2635
     20 N         140.0740  139.5510  171.0606 N.am    1  UNL1       -0.3240
     21 O         141.1657  141.9019  170.8837 O.2     1  UNL1       -0.2686
     22 H         139.9605  138.6355  170.7166 H       1  UNL1        0.1453
     23 H         139.5844  139.8388  171.8648 H       1  UNL1        0.1453
     24 C         143.8689  138.1747  161.9273 C.3     1  UNL1        0.2525
     25 O         144.5413  139.0530  162.9404 O.3     1  UNL1       -0.4701
     26 N         140.6310  141.9849  167.7740 N.pl3   1  UNL1       -0.3094
     27 H         140.5178  142.5678  168.5593 H       1  UNL1        0.1523
     28 C         139.8768  142.2743  166.5101 C.ar    1  UNL1        0.0761
     29 C         140.0063  143.6149  165.8497 C.ar    1  UNL1        0.0166
     30 C         139.2521  143.9043  164.5858 C.ar    1  UNL1       -0.0028
     31 C         138.3685  142.8531  163.9822 C.ar    1  UNL1       -0.0195
     32 C         137.6143  143.1425  162.7183 C.3     1  UNL1        0.0311
     33 C         138.2390  141.5125  164.6426 C.ar    1  UNL1        0.0267
     34 C         138.9932  141.2231  165.9066 C.ar    1  UNL1        0.1531
     35 F         138.8638  139.8826  166.5669 F       1  UNL1       -0.2029
@<TRIPOS>BOND
     1    24    25    1
     2    25     1    1
     3     1     2   ar
     4     2     3   ar
     5     3     4   ar
     6     4     5   ar
     7     5     6   ar
     8     6    19    1
     9    19    20   am
    10    19    21    2
    11     6     7   ar
    12     7    26    1
    13    26    28    1
    14    28    29   ar
    15    29    30   ar
    16    30    31   ar
    17    31    32    1
    18    31    33   ar
    19    33    34   ar
    20    34    35    1
    21     7     8   ar
    22     8     9   ar
    23     9    10   ar
    24    10    11    1
    25    11    12    1
    26    12    13    1
    27    13    14    1
    28    14    15    2
    29    14    16    2
    30    14    17    1
    31    17    18    1
    32    10     1   ar
    33    18    11    1
    34     8     3   ar
    35    34    28   ar
    36    20    22    1
    37    20    23    1
    38    26    27    1
@<TRIPOS>MOLECULE
*****
 35 38 0 0 0
SMALL
GASTEIGER

@<TRIPOS>ATOM
      1 C         139.3625  143.8778  163.0203 C.ar    1  UNL1        0.1534
      2 C         139.8142  144.8332  161.9559 C.ar    1  UNL1        0.0591
      3 C         140.8271  144.3983  160.9385 C.ar    1  UNL1        0.1072
      4 N         141.2788  145.3538  159.8740 N.ar    1  UNL1       -0.1477
      5 N         142.2917  144.9189  158.8567 N.ar    1  UNL1       -0.1421
      6 C         142.8528  143.5286  158.9039 C.ar    1  UNL1        0.1690
      7 C         142.4011  142.5732  159.9683 C.ar    1  UNL1        0.0740
      8 C         141.3882  143.0081  160.9857 C.ar    1  UNL1        0.0359
      9 C         140.9365  142.0527  162.0501 C.ar    1  UNL1        0.0204
     10 C         139.9236  142.4875  163.0675 C.ar    1  UNL1        0.0825
     11 N         139.4719  141.5321  164.1320 N.pl3   1  UNL1       -0.3016
     12 C         140.0752  141.5977  165.5037 C.3     1  UNL1        0.1162
     13 C         139.6236  140.6423  166.5682 C.3     1  UNL1        0.1722
     14 S         138.5686  139.6212  166.2610 S.O2    1  UNL1       -0.0066
     15 O         137.6072  138.4860  166.4533 O.2     1  UNL1       -0.1729
     16 O         138.8380  139.2926  167.6995 O.2     1  UNL1       -0.1729
     17 C         137.9653  139.5555  164.8892 C.3     1  UNL1        0.1722
     18 C         138.4170  140.5110  163.8247 C.3     1  UNL1        0.1162
     19 C         143.8657  143.0937  157.8865 C.2     1  UNL1        0.2635
     20 N         143.6575  143.4149  156.4361 N.am    1  UNL1       -0.3240
     21 O         145.0868  142.3378  158.3195 O.2     1  UNL1       -0.2686
     22 H         142.8561  143.9111  156.1520 H       1  UNL1        0.1453
     23 H         144.3223  143.1295  155.7684 H       1  UNL1        0.1453
     24 C         138.8009  144.9083  165.3382 C.3     1  UNL1        0.2525
     25 O         138.3496  144.3126  164.0377 O.3     1  UNL1       -0.4701
     26 N         142.9623  141.1830  160.0155 N.pl3   1  UNL1       -0.3094
     27 H         142.9458  140.6179  159.2095 H       1  UNL1        0.1523
     28 C         143.5487  140.6537  161.2907 C.ar    1  UNL1        0.0761
     29 C         144.6202  141.4265  162.0010 C.ar    1  UNL1        0.0166
     30 C         145.2066  140.8972  163.2761 C.ar    1  UNL1       -0.0028
     31 C         144.7214  139.5951  163.8411 C.ar    1  UNL1       -0.0195
     32 C         145.3077  139.0659  165.1162 C.3     1  UNL1        0.0311
     33 C         143.6498  138.8223  163.1308 C.ar    1  UNL1        0.0267
     34 C         143.0635  139.3516  161.8556 C.ar    1  UNL1        0.1531
     35 F         141.9919  138.5787  161.1453 F       1  UNL1       -0.2029
@<TRIPOS>BOND
     1    24    25    1
     2    25     1    1
     3     1     2   ar
     4     2     3   ar
     5     3     4   ar
     6     4     5   ar
     7     5     6   ar
     8     6    19    1
     9    19    20   am
    10    19    21    2
    11     6     7   ar
    12     7    26    1
    13    26    28    1
    14    28    29   ar
    15    29    30   ar
    16    30    31   ar
    17    31    32    1
    18    31    33   ar
    19    33    34   ar
    20    34    35    1
    21     7     8   ar
    22     8     9   ar
    23     9    10   ar
    24    10    11    1
    25    11    12    1
    26    12    13    1
    27    13    14    1
    28    14    15    2
    29    14    16    2
    30    14    17    1
    31    17    18    1
    32    10     1   ar
    33    18    11    1
    34     8     3   ar
    35    34    28   ar
    36    20    22    1
    37    20    23    1
    38    26    27    1
@<TRIPOS>MOLECULE
*****
 35 38 0 0 0
SMALL
GASTEIGER

@<TRIPOS>ATOM
      1 C         137.9172  140.6540  162.2521 C.ar    1  UNL1        0.1534
      2 C         137.7444  140.5418  160.7664 C.ar    1  UNL1        0.0591
      3 C         138.7874  139.8494  159.9402 C.ar    1  UNL1        0.1072
      4 N         138.6145  139.7372  158.4544 N.ar    1  UNL1       -0.1477
      5 N         139.6575  139.0447  157.6282 N.ar    1  UNL1       -0.1421
      6 C         140.8734  138.4644  158.2878 C.ar    1  UNL1        0.1690
      7 C         141.0462  138.5766  159.7735 C.ar    1  UNL1        0.0740
      8 C         140.0032  139.2691  160.5997 C.ar    1  UNL1        0.0359
      9 C         140.1760  139.3813  162.0855 C.ar    1  UNL1        0.0204
     10 C         139.1330  140.0738  162.9117 C.ar    1  UNL1        0.0825
     11 N         139.3059  140.1860  164.3975 N.pl3   1  UNL1       -0.3016
     12 C         138.5808  139.2420  165.3103 C.3     1  UNL1        0.1162
     13 C         138.7536  139.3541  166.7961 C.3     1  UNL1        0.1722
     14 S         139.6515  140.4103  167.3691 S.O2    1  UNL1       -0.0066
     15 O         140.3863  141.2385  168.3811 O.2     1  UNL1       -0.1729
     16 O         139.1816  139.7540  168.6333 O.2     1  UNL1       -0.1729
     17 C         140.3766  141.3543  166.4563 C.3     1  UNL1        0.1722
     18 C         140.2038  141.2421  164.9705 C.3     1  UNL1        0.1162
     19 C         141.9164  137.7719  157.4616 C.2     1  UNL1        0.2635
     20 N         141.5223  136.6615  156.5331 N.am    1  UNL1       -0.3240
     21 O         143.3534  138.1897  157.5637 O.2     1  UNL1       -0.2686
     22 H         140.5792  136.3873  156.4661 H       1  UNL1        0.1453
     23 H         142.2069  136.2070  155.9909 H       1  UNL1        0.1453
     24 C         137.1528  142.7030  163.6548 C.3     1  UNL1        0.2525
     25 O         136.8742  141.3465  163.0784 O.3     1  UNL1       -0.4701
     26 N         142.2620  137.9963  160.4331 N.pl3   1  UNL1       -0.3094
     27 H         142.4866  137.0467  160.3030 H       1  UNL1        0.1523
     28 C         143.1357  138.8630  161.2908 C.ar    1  UNL1        0.0761
     29 C         143.8320  140.0499  160.6938 C.ar    1  UNL1        0.0166
     30 C         144.7056  140.9166  161.5515 C.ar    1  UNL1       -0.0028
     31 C         144.8830  140.5964  163.0061 C.ar    1  UNL1       -0.0195
     32 C         145.7567  141.4630  163.8638 C.3     1  UNL1        0.0311
     33 C         144.1867  139.4094  163.6031 C.ar    1  UNL1        0.0267
     34 C         143.3130  138.5427  162.7454 C.ar    1  UNL1        0.1531
     35 F         142.6167  137.3558  163.3424 F       1  UNL1       -0.2029
@<TRIPOS>BOND
     1    24    25    1
     2    25     1    1
     3     1     2   ar
     4     2     3   ar
     5     3     4   ar
     6     4     5   ar
     7     5     6   ar
     8     6    19    1
     9    19    20   am
    10    19    21    2
    11     6     7   ar
    12     7    26    1
    13    26    28    1
    14    28    29   ar
    15    29    30   ar
    16    30    31   ar
    17    31    32    1
    18    31    33   ar
    19    33    34   ar
    20    34    35    1
    21     7     8   ar
    22     8     9   ar
    23     9    10   ar
    24    10    11    1
    25    11    12    1
    26    12    13    1
    27    13    14    1
    28    14    15    2
    29    14    16    2
    30    14    17    1
    31    17    18    1
    32    10     1   ar
    33    18    11    1
    34     8     3   ar
    35    34    28   ar
    36    20    22    1
    37    20    23    1
    38    26    27    1
