@<TRIPOS>MOLECULE
*****
 33 37 0 0 0
SMALL
GASTEIGER

@<TRIPOS>ATOM
      1 C         138.2567  140.0393  159.5871 C.ar    1  UNL1        0.0344
      2 C         137.5931  140.4354  160.8727 C.ar    1  UNL1        0.0061
      3 C         137.8736  139.6662  162.1295 C.ar    1  UNL1        0.0370
      4 C         138.8176  138.5010  162.1008 C.ar    1  UNL1        0.1384
      5 C         139.4812  138.1049  160.8152 C.ar    1  UNL1        0.0370
      6 C         139.2008  138.8740  159.5584 C.ar    1  UNL1        0.0061
      7 C         140.0475  142.3091  158.7865 C.3     1  UNL1        0.1350
      8 N         138.8716  141.9434  157.9299 N.ar    1  UNL1       -0.2786
      9 C         137.9762  140.8085  158.3302 C.ar    1  UNL1        0.1460
     10 N         136.8004  140.4428  157.4738 N.ar    1  UNL1       -0.2281
     11 C         136.5199  141.2120  156.2168 C.ar    1  UNL1        0.0914
     12 C         135.3440  140.8464  155.3604 C.ar    1  UNL1        0.0892
     13 C         135.0636  141.6155  154.1035 C.ar    1  UNL1        0.0054
     14 C         135.9590  142.7504  153.7032 C.ar    1  UNL1        0.0002
     15 C         137.1349  143.1161  154.5597 C.ar    1  UNL1        0.0062
     16 C         137.4153  142.3469  155.8165 C.ar    1  UNL1        0.0738
     17 C         138.5912  142.7126  156.6731 C.ar    1  UNL1        0.2634
     18 O         139.4866  143.8475  156.2727 O.2     1  UNL1       -0.2669
     19 C         134.4486  139.7115  155.7607 C.3     1  UNL1        0.4200
     20 F         133.5532  138.5766  156.1610 F       1  UNL1       -0.1658
     21 F         133.6460  140.6465  156.6160 F       1  UNL1       -0.1658
     22 F         135.2512  138.7765  154.9054 F       1  UNL1       -0.1658
     23 O         139.0981  137.7318  163.3577 O.3     1  UNL1       -0.4791
     24 C         139.2632  138.4574  164.6600 C.3     1  UNL1        0.1687
     25 C         138.2377  138.2975  165.7430 C.3     1  UNL1        0.0609
     26 C         138.4028  139.0232  167.0453 C.3     1  UNL1        0.0758
     27 N         139.5935  139.9088  167.2647 N.3     1  UNL1       -0.2737
     28 C         140.6190  140.0687  166.1818 C.3     1  UNL1        0.0758
     29 C         140.4538  139.3430  164.8794 C.3     1  UNL1        0.0609
     30 C         139.7586  140.6345  168.5670 C.3     1  UNL1        0.0575
     31 C         140.6247  141.7590  169.0523 C.3     1  UNL1        0.0160
     32 C         139.9921  141.6608  170.4088 C.3     1  UNL1        0.0028
     33 C         139.1260  140.5363  169.9236 C.3     1  UNL1        0.0160
@<TRIPOS>BOND
     1     7     8    1
     2     8     9   ar
     3     9     1    1
     4     1     2   ar
     5     2     3   ar
     6     3     4   ar
     7     4    23    1
     8    23    24    1
     9    24    25    1
    10    25    26    1
    11    26    27    1
    12    27    30    1
    13    30    31    1
    14    31    32    1
    15    32    33    1
    16    27    28    1
    17    28    29    1
    18     4     5   ar
    19     5     6   ar
    20     9    10   ar
    21    10    11   ar
    22    11    12   ar
    23    12    19    1
    24    19    20    1
    25    19    21    1
    26    19    22    1
    27    12    13   ar
    28    13    14   ar
    29    14    15   ar
    30    15    16   ar
    31    16    17   ar
    32    17    18    2
    33    17     8   ar
    34     6     1   ar
    35    16    11   ar
    36    29    24    1
    37    33    30    1
@<TRIPOS>MOLECULE
*****
 33 37 0 0 0
SMALL
GASTEIGER

@<TRIPOS>ATOM
      1 C         141.6449  138.9413  161.5965 C.ar    1  UNL1        0.0344
      2 C         142.7894  137.9777  161.4880 C.ar    1  UNL1        0.0061
      3 C         143.2792  137.5440  160.1383 C.ar    1  UNL1        0.0370
      4 C         142.6247  138.0738  158.8970 C.ar    1  UNL1        0.1384
      5 C         141.4802  139.0374  159.0054 C.ar    1  UNL1        0.0370
      6 C         140.9904  139.4711  160.3552 C.ar    1  UNL1        0.0061
      7 C         139.2712  137.5891  162.8364 C.3     1  UNL1        0.1350
      8 N         139.9682  138.6990  163.5662 N.ar    1  UNL1       -0.2786
      9 C         141.1550  139.3750  162.9463 C.ar    1  UNL1        0.1460
     10 N         141.8519  140.4848  163.6761 N.ar    1  UNL1       -0.2281
     11 C         141.3620  140.9186  165.0259 C.ar    1  UNL1        0.0914
     12 C         142.0589  142.0284  165.7557 C.ar    1  UNL1        0.0892
     13 C         141.5690  142.4621  167.1054 C.ar    1  UNL1        0.0054
     14 C         140.3821  141.7860  167.7253 C.ar    1  UNL1        0.0002
     15 C         139.6852  140.6762  166.9955 C.ar    1  UNL1        0.0062
     16 C         140.1752  140.2425  165.6458 C.ar    1  UNL1        0.0738
     17 C         139.4782  139.1327  164.9159 C.ar    1  UNL1        0.2634
     18 O         138.2914  138.4566  165.5359 O.2     1  UNL1       -0.2669
     19 C         143.2458  142.7045  165.1357 C.3     1  UNL1        0.4200
     20 F         144.4326  143.3805  164.5158 F       1  UNL1       -0.1658
     21 F         144.1304  141.5928  165.6171 F       1  UNL1       -0.1658
     22 F         142.3611  143.8161  164.6544 F       1  UNL1       -0.1658
     23 O         143.1146  137.6401  157.5472 O.3     1  UNL1       -0.4791
     24 C         142.7666  136.2776  157.0253 C.3     1  UNL1        0.1687
     25 C         143.4607  135.0653  157.5717 C.3     1  UNL1        0.0609
     26 C         143.1128  133.7028  157.0498 C.3     1  UNL1        0.0758
     27 N         142.0707  133.5525  155.9814 N.3     1  UNL1       -0.2737
     28 C         141.3766  134.7647  155.4349 C.3     1  UNL1        0.0758
     29 C         141.7246  136.1273  155.9569 C.3     1  UNL1        0.0609
     30 C         141.7228  132.1900  155.4595 C.3     1  UNL1        0.0575
     31 C         140.7116  131.6514  154.4912 C.3     1  UNL1        0.0160
     32 C         141.2307  130.2630  154.7214 C.3     1  UNL1        0.0028
     33 C         142.2419  130.8016  155.6896 C.3     1  UNL1        0.0160
@<TRIPOS>BOND
     1     7     8    1
     2     8     9   ar
     3     9     1    1
     4     1     2   ar
     5     2     3   ar
     6     3     4   ar
     7     4    23    1
     8    23    24    1
     9    24    25    1
    10    25    26    1
    11    26    27    1
    12    27    30    1
    13    30    31    1
    14    31    32    1
    15    32    33    1
    16    27    28    1
    17    28    29    1
    18     4     5   ar
    19     5     6   ar
    20     9    10   ar
    21    10    11   ar
    22    11    12   ar
    23    12    19    1
    24    19    20    1
    25    19    21    1
    26    19    22    1
    27    12    13   ar
    28    13    14   ar
    29    14    15   ar
    30    15    16   ar
    31    16    17   ar
    32    17    18    2
    33    17     8   ar
    34     6     1   ar
    35    16    11   ar
    36    29    24    1
    37    33    30    1
@<TRIPOS>MOLECULE
*****
 33 37 0 0 0
SMALL
GASTEIGER

@<TRIPOS>ATOM
      1 C         142.2836  138.5287  160.2234 C.ar    1  UNL1        0.0344
      2 C         141.8567  137.7871  161.4554 C.ar    1  UNL1        0.0061
      3 C         142.5628  138.0262  162.7570 C.ar    1  UNL1        0.0370
      4 C         143.6956  139.0069  162.8267 C.ar    1  UNL1        0.1384
      5 C         144.1225  139.7485  161.5947 C.ar    1  UNL1        0.0370
      6 C         143.4165  139.5094  160.2931 C.ar    1  UNL1        0.0061
      7 C         139.8389  140.1225  159.5282 C.3     1  UNL1        0.1350
      8 N         140.3552  139.0865  158.5741 N.ar    1  UNL1       -0.2786
      9 C         141.5776  138.2896  158.9217 C.ar    1  UNL1        0.1460
     10 N         142.0939  137.2537  157.9676 N.ar    1  UNL1       -0.2281
     11 C         141.3879  137.0147  156.6659 C.ar    1  UNL1        0.0914
     12 C         141.9042  135.9788  155.7118 C.ar    1  UNL1        0.0892
     13 C         141.1982  135.7397  154.4102 C.ar    1  UNL1        0.0054
     14 C         139.9758  136.5366  154.0626 C.ar    1  UNL1        0.0002
     15 C         139.4595  137.5725  155.0166 C.ar    1  UNL1        0.0062
     16 C         140.1655  137.8115  156.3183 C.ar    1  UNL1        0.0738
     17 C         139.6492  138.8475  157.2724 C.ar    1  UNL1        0.2634
     18 O         138.4268  139.6443  156.9248 O.2     1  UNL1       -0.2669
     19 C         143.1266  135.1819  156.0595 C.3     1  UNL1        0.4200
     20 F         144.3489  134.3850  156.4071 F       1  UNL1       -0.1658
     21 F         142.2572  134.0687  156.5644 F       1  UNL1       -0.1658
     22 F         143.9959  136.2951  155.5545 F       1  UNL1       -0.1658
     23 O         144.4017  139.2460  164.1284 O.3     1  UNL1       -0.4791
     24 C         143.7343  140.0458  165.2077 C.3     1  UNL1        0.1687
     25 C         143.0417  139.3467  166.3398 C.3     1  UNL1        0.0609
     26 C         142.3744  140.1465  167.4192 C.3     1  UNL1        0.0758
     27 N         142.3996  141.6454  167.3664 N.3     1  UNL1       -0.2737
     28 C         143.0922  142.3445  166.2343 C.3     1  UNL1        0.0758
     29 C         143.7596  141.5446  165.1549 C.3     1  UNL1        0.0609
     30 C         141.7323  142.4452  168.4457 C.3     1  UNL1        0.0575
     31 C         140.4062  143.1308  168.5918 C.3     1  UNL1        0.0160
     32 C         140.7885  143.5763  169.9721 C.3     1  UNL1        0.0028
     33 C         142.1147  142.8907  169.8260 C.3     1  UNL1        0.0160
@<TRIPOS>BOND
     1     7     8    1
     2     8     9   ar
     3     9     1    1
     4     1     2   ar
     5     2     3   ar
     6     3     4   ar
     7     4    23    1
     8    23    24    1
     9    24    25    1
    10    25    26    1
    11    26    27    1
    12    27    30    1
    13    30    31    1
    14    31    32    1
    15    32    33    1
    16    27    28    1
    17    28    29    1
    18     4     5   ar
    19     5     6   ar
    20     9    10   ar
    21    10    11   ar
    22    11    12   ar
    23    12    19    1
    24    19    20    1
    25    19    21    1
    26    19    22    1
    27    12    13   ar
    28    13    14   ar
    29    14    15   ar
    30    15    16   ar
    31    16    17   ar
    32    17    18    2
    33    17     8   ar
    34     6     1   ar
    35    16    11   ar
    36    29    24    1
    37    33    30    1
@<TRIPOS>MOLECULE
*****
 33 37 0 0 0
SMALL
GASTEIGER

@<TRIPOS>ATOM
      1 C         142.3601  140.3224  159.0349 C.ar    1  UNL1        0.0344
      2 C         143.3634  140.1276  157.9370 C.ar    1  UNL1        0.0061
      3 C         143.1688  139.0344  156.9286 C.ar    1  UNL1        0.0370
      4 C         141.9710  138.1359  157.0181 C.ar    1  UNL1        0.1384
      5 C         140.9678  138.3306  158.1161 C.ar    1  UNL1        0.0370
      6 C         141.1623  139.4239  159.1245 C.ar    1  UNL1        0.0061
      7 C         141.2600  143.0630  158.5070 C.3     1  UNL1        0.1350
      8 N         142.0046  142.7860  159.7794 N.ar    1  UNL1       -0.2786
      9 C         142.5546  141.4157  160.0434 C.ar    1  UNL1        0.1460
     10 N         143.2992  141.1387  161.3157 N.ar    1  UNL1       -0.2281
     11 C         143.4937  142.2320  162.3242 C.ar    1  UNL1        0.0914
     12 C         144.2382  141.9549  163.5965 C.ar    1  UNL1        0.0892
     13 C         144.4327  143.0482  164.6049 C.ar    1  UNL1        0.0054
     14 C         143.8826  144.4185  164.3409 C.ar    1  UNL1        0.0002
     15 C         143.1381  144.6956  163.0686 C.ar    1  UNL1        0.0062
     16 C         142.9436  143.6023  162.0602 C.ar    1  UNL1        0.0738
     17 C         142.1991  143.8793  160.7878 C.ar    1  UNL1        0.2634
     18 O         141.6490  145.2496  160.5238 O.2     1  UNL1       -0.2669
     19 C         144.7882  140.5846  163.8605 C.3     1  UNL1        0.4200
     20 F         145.3383  139.2143  164.1244 F       1  UNL1       -0.1658
     21 F         146.1606  141.0644  163.4912 F       1  UNL1       -0.1658
     22 F         143.4158  140.1049  164.2297 F       1  UNL1       -0.1658
     23 O         141.7765  137.0426  156.0097 O.3     1  UNL1       -0.4791
     24 C         142.2371  135.6485  156.3166 C.3     1  UNL1        0.1687
     25 C         141.7114  134.4921  155.5188 C.3     1  UNL1        0.0609
     26 C         142.1720  133.0980  155.8258 C.3     1  UNL1        0.0758
     27 N         143.1584  132.8602  156.9306 N.3     1  UNL1       -0.2737
     28 C         143.6841  134.0165  157.7284 C.3     1  UNL1        0.0758
     29 C         143.2235  135.4107  157.4214 C.3     1  UNL1        0.0609
     30 C         143.6190  131.4661  157.2376 C.3     1  UNL1        0.0575
     31 C         144.7760  130.8716  157.9846 C.3     1  UNL1        0.0160
     32 C         144.2704  129.4945  157.6717 C.3     1  UNL1        0.0028
     33 C         143.1135  130.0890  156.9247 C.3     1  UNL1        0.0160
@<TRIPOS>BOND
     1     7     8    1
     2     8     9   ar
     3     9     1    1
     4     1     2   ar
     5     2     3   ar
     6     3     4   ar
     7     4    23    1
     8    23    24    1
     9    24    25    1
    10    25    26    1
    11    26    27    1
    12    27    30    1
    13    30    31    1
    14    31    32    1
    15    32    33    1
    16    27    28    1
    17    28    29    1
    18     4     5   ar
    19     5     6   ar
    20     9    10   ar
    21    10    11   ar
    22    11    12   ar
    23    12    19    1
    24    19    20    1
    25    19    21    1
    26    19    22    1
    27    12    13   ar
    28    13    14   ar
    29    14    15   ar
    30    15    16   ar
    31    16    17   ar
    32    17    18    2
    33    17     8   ar
    34     6     1   ar
    35    16    11   ar
    36    29    24    1
    37    33    30    1
@<TRIPOS>MOLECULE
*****
 33 37 0 0 0
SMALL
GASTEIGER

@<TRIPOS>ATOM
      1 C         141.6031  142.8361  164.4345 C.ar    1  UNL1        0.0344
      2 C         142.5597  143.9355  164.0796 C.ar    1  UNL1        0.0061
      3 C         142.2642  144.8420  162.9216 C.ar    1  UNL1        0.0370
      4 C         141.0121  144.6491  162.1186 C.ar    1  UNL1        0.1384
      5 C         140.0554  143.5496  162.4735 C.ar    1  UNL1        0.0370
      6 C         140.3509  142.6431  163.6314 C.ar    1  UNL1        0.0061
      7 C         142.7349  140.1008  163.9473 C.3     1  UNL1        0.1350
      8 N         142.4644  140.5619  165.3489 N.ar    1  UNL1       -0.2786
      9 C         141.8986  141.9295  165.5925 C.ar    1  UNL1        0.1460
     10 N         141.6281  142.3906  166.9940 N.ar    1  UNL1       -0.2281
     11 C         141.9236  141.4840  168.1520 C.ar    1  UNL1        0.0914
     12 C         141.6532  141.9451  169.5535 C.ar    1  UNL1        0.0892
     13 C         141.9486  141.0385  170.7114 C.ar    1  UNL1        0.0054
     14 C         142.5145  139.6709  170.4678 C.ar    1  UNL1        0.0002
     15 C         142.7850  139.2098  169.0663 C.ar    1  UNL1        0.0062
     16 C         142.4895  140.1164  167.9084 C.ar    1  UNL1        0.0738
     17 C         142.7599  139.6553  166.5068 C.ar    1  UNL1        0.2634
     18 O         143.3258  138.2877  166.2632 O.2     1  UNL1       -0.2669
     19 C         141.0873  143.3127  169.7971 C.3     1  UNL1        0.4200
     20 F         140.5214  144.6804  170.0406 F       1  UNL1       -0.1658
     21 F         139.7344  142.8298  169.3653 F       1  UNL1       -0.1658
     22 F         142.4402  143.7956  170.2288 F       1  UNL1       -0.1658
     23 O         140.7166  145.5556  160.9606 O.3     1  UNL1       -0.4791
     24 C         141.1402  145.1655  159.5755 C.3     1  UNL1        0.1687
     25 C         142.2224  144.1451  159.3817 C.3     1  UNL1        0.0609
     26 C         142.6460  143.7550  157.9967 C.3     1  UNL1        0.0758
     27 N         141.9873  144.3852  156.8054 N.3     1  UNL1       -0.2737
     28 C         140.9051  145.4056  156.9993 C.3     1  UNL1        0.0758
     29 C         140.4815  145.7957  158.3844 C.3     1  UNL1        0.0609
     30 C         142.4109  143.9951  155.4204 C.3     1  UNL1        0.0575
     31 C         142.2444  142.7745  154.5646 C.3     1  UNL1        0.0160
     32 C         143.0099  143.4433  153.4616 C.3     1  UNL1        0.0028
     33 C         143.1764  144.6640  154.3174 C.3     1  UNL1        0.0160
@<TRIPOS>BOND
     1     7     8    1
     2     8     9   ar
     3     9     1    1
     4     1     2   ar
     5     2     3   ar
     6     3     4   ar
     7     4    23    1
     8    23    24    1
     9    24    25    1
    10    25    26    1
    11    26    27    1
    12    27    30    1
    13    30    31    1
    14    31    32    1
    15    32    33    1
    16    27    28    1
    17    28    29    1
    18     4     5   ar
    19     5     6   ar
    20     9    10   ar
    21    10    11   ar
    22    11    12   ar
    23    12    19    1
    24    19    20    1
    25    19    21    1
    26    19    22    1
    27    12    13   ar
    28    13    14   ar
    29    14    15   ar
    30    15    16   ar
    31    16    17   ar
    32    17    18    2
    33    17     8   ar
    34     6     1   ar
    35    16    11   ar
    36    29    24    1
    37    33    30    1
@<TRIPOS>MOLECULE
*****
 33 37 0 0 0
SMALL
GASTEIGER

@<TRIPOS>ATOM
      1 C         141.0453  143.8939  160.0346 C.ar    1  UNL1        0.0344
      2 C         140.2097  142.9646  159.2051 C.ar    1  UNL1        0.0061
      3 C         139.7963  143.3629  157.8193 C.ar    1  UNL1        0.0370
      4 C         140.2184  144.6905  157.2631 C.ar    1  UNL1        0.1384
      5 C         141.0540  145.6197  158.0927 C.ar    1  UNL1        0.0370
      6 C         141.4675  145.2214  159.4784 C.ar    1  UNL1        0.0061
      7 C         143.8116  142.8446  160.5313 C.3     1  UNL1        0.1350
      8 N         142.8419  142.9710  161.6688 N.ar    1  UNL1       -0.2786
      9 C         141.4588  143.4956  161.4205 C.ar    1  UNL1        0.1460
     10 N         140.4891  143.6219  162.5579 N.ar    1  UNL1       -0.2281
     11 C         140.9026  143.2237  163.9437 C.ar    1  UNL1        0.0914
     12 C         139.9330  143.3500  165.0812 C.ar    1  UNL1        0.0892
     13 C         140.3465  142.9517  166.4669 C.ar    1  UNL1        0.0054
     14 C         141.7296  142.4271  166.7152 C.ar    1  UNL1        0.0002
     15 C         142.6993  142.3008  165.5778 C.ar    1  UNL1        0.0062
     16 C         142.2858  142.6990  164.1921 C.ar    1  UNL1        0.0738
     17 C         143.2554  142.5727  163.0546 C.ar    1  UNL1        0.2634
     18 O         144.6386  142.0481  163.3029 O.2     1  UNL1       -0.2669
     19 C         138.5498  143.8746  164.8328 C.3     1  UNL1        0.4200
     20 F         137.1667  144.3992  164.5845 F       1  UNL1       -0.1658
     21 F         138.0801  142.4859  164.5154 F       1  UNL1       -0.1658
     22 F         139.0196  145.2634  165.1502 F       1  UNL1       -0.1658
     23 O         139.8049  145.0887  155.8773 O.3     1  UNL1       -0.4791
     24 C         139.6420  146.5390  155.5309 C.3     1  UNL1        0.1687
     25 C         138.8589  147.4430  156.4362 C.3     1  UNL1        0.0609
     26 C         138.6959  148.8933  156.0898 C.3     1  UNL1        0.0758
     27 N         139.3161  149.4397  154.8381 N.3     1  UNL1       -0.2737
     28 C         140.0993  148.5358  153.9327 C.3     1  UNL1        0.0758
     29 C         140.2622  147.0854  154.2792 C.3     1  UNL1        0.0609
     30 C         139.1532  150.8900  154.4917 C.3     1  UNL1        0.0575
     31 C         138.5865  152.0902  155.1905 C.3     1  UNL1        0.0160
     32 C         138.9227  152.9411  154.0018 C.3     1  UNL1        0.0028
     33 C         139.4894  151.7409  153.3030 C.3     1  UNL1        0.0160
@<TRIPOS>BOND
     1     7     8    1
     2     8     9   ar
     3     9     1    1
     4     1     2   ar
     5     2     3   ar
     6     3     4   ar
     7     4    23    1
     8    23    24    1
     9    24    25    1
    10    25    26    1
    11    26    27    1
    12    27    30    1
    13    30    31    1
    14    31    32    1
    15    32    33    1
    16    27    28    1
    17    28    29    1
    18     4     5   ar
    19     5     6   ar
    20     9    10   ar
    21    10    11   ar
    22    11    12   ar
    23    12    19    1
    24    19    20    1
    25    19    21    1
    26    19    22    1
    27    12    13   ar
    28    13    14   ar
    29    14    15   ar
    30    15    16   ar
    31    16    17   ar
    32    17    18    2
    33    17     8   ar
    34     6     1   ar
    35    16    11   ar
    36    29    24    1
    37    33    30    1
@<TRIPOS>MOLECULE
*****
 33 37 0 0 0
SMALL
GASTEIGER

@<TRIPOS>ATOM
      1 C         141.0475  139.4748  160.2070 C.ar    1  UNL1        0.0344
      2 C         140.5215  139.4408  158.8026 C.ar    1  UNL1        0.0061
      3 C         141.2677  138.6894  157.7403 C.ar    1  UNL1        0.0370
      4 C         142.5398  137.9719  158.0823 C.ar    1  UNL1        0.1384
      5 C         143.0657  138.0059  159.4867 C.ar    1  UNL1        0.0370
      6 C         142.3196  138.7573  160.5490 C.ar    1  UNL1        0.0061
      7 C         139.3802  137.9852  162.2074 C.3     1  UNL1        0.1350
      8 N         139.4677  139.4814  162.2696 N.ar    1  UNL1       -0.2786
      9 C         140.3013  140.2262  161.2694 C.ar    1  UNL1        0.1460
     10 N         140.3888  141.7223  161.3316 N.ar    1  UNL1       -0.2281
     11 C         139.6426  142.4738  162.3940 C.ar    1  UNL1        0.0914
     12 C         139.7301  143.9699  162.4562 C.ar    1  UNL1        0.0892
     13 C         138.9840  144.7212  163.5185 C.ar    1  UNL1        0.0054
     14 C         138.1503  143.9765  164.5187 C.ar    1  UNL1        0.0002
     15 C         138.0628  142.4804  164.4566 C.ar    1  UNL1        0.0062
     16 C         138.8090  141.7290  163.3942 C.ar    1  UNL1        0.0738
     17 C         138.7215  140.2328  163.3320 C.ar    1  UNL1        0.2634
     18 O         137.8879  139.4880  164.3321 O.2     1  UNL1       -0.2669
     19 C         140.5637  144.7147  161.4560 C.3     1  UNL1        0.4200
     20 F         141.3974  145.4594  160.4558 F       1  UNL1       -0.1658
     21 F         141.6798  144.8057  162.4540 F       1  UNL1       -0.1658
     22 F         139.4477  144.6236  160.4580 F       1  UNL1       -0.1658
     23 O         143.2859  137.2205  157.0199 O.3     1  UNL1       -0.4791
     24 C         142.8357  135.8480  156.6155 C.3     1  UNL1        0.1687
     25 C         143.4414  134.6386  157.2639 C.3     1  UNL1        0.0609
     26 C         142.9912  133.2661  156.8595 C.3     1  UNL1        0.0758
     27 N         141.9352  133.1030  155.8067 N.3     1  UNL1       -0.2737
     28 C         141.3295  134.3124  155.1583 C.3     1  UNL1        0.0758
     29 C         141.7798  135.6850  155.5627 C.3     1  UNL1        0.0609
     30 C         141.4850  131.7306  155.4023 C.3     1  UNL1        0.0575
     31 C         142.0504  130.3473  155.5332 C.3     1  UNL1        0.0160
     32 C         140.8483  129.7895  154.8304 C.3     1  UNL1        0.0028
     33 C         140.2829  131.1727  154.6995 C.3     1  UNL1        0.0160
@<TRIPOS>BOND
     1     7     8    1
     2     8     9   ar
     3     9     1    1
     4     1     2   ar
     5     2     3   ar
     6     3     4   ar
     7     4    23    1
     8    23    24    1
     9    24    25    1
    10    25    26    1
    11    26    27    1
    12    27    30    1
    13    30    31    1
    14    31    32    1
    15    32    33    1
    16    27    28    1
    17    28    29    1
    18     4     5   ar
    19     5     6   ar
    20     9    10   ar
    21    10    11   ar
    22    11    12   ar
    23    12    19    1
    24    19    20    1
    25    19    21    1
    26    19    22    1
    27    12    13   ar
    28    13    14   ar
    29    14    15   ar
    30    15    16   ar
    31    16    17   ar
    32    17    18    2
    33    17     8   ar
    34     6     1   ar
    35    16    11   ar
    36    29    24    1
    37    33    30    1
@<TRIPOS>MOLECULE
*****
 33 37 0 0 0
SMALL
GASTEIGER

@<TRIPOS>ATOM
      1 C         140.5431  138.8994  159.0780 C.ar    1  UNL1        0.0344
      2 C         139.6611  138.2714  158.0399 C.ar    1  UNL1        0.0061
      3 C         140.2607  137.4122  156.9666 C.ar    1  UNL1        0.0370
      4 C         141.7424  137.1810  156.9313 C.ar    1  UNL1        0.1384
      5 C         142.6244  137.8089  157.9694 C.ar    1  UNL1        0.0370
      6 C         142.0247  138.6681  159.0427 C.ar    1  UNL1        0.0061
      7 C         139.3826  141.5770  158.3825 C.3     1  UNL1        0.1350
      8 N         139.3632  141.0975  159.8037 N.ar    1  UNL1       -0.2786
      9 C         139.9434  139.7587  160.1514 C.ar    1  UNL1        0.1460
     10 N         139.9240  139.2791  161.5725 N.ar    1  UNL1       -0.2281
     11 C         139.3244  140.1384  162.6460 C.ar    1  UNL1        0.0914
     12 C         139.3050  139.6588  164.0671 C.ar    1  UNL1        0.0892
     13 C         138.7054  140.5181  165.1404 C.ar    1  UNL1        0.0054
     14 C         138.1252  141.8569  164.7926 C.ar    1  UNL1        0.0002
     15 C         138.1446  142.3364  163.3715 C.ar    1  UNL1        0.0062
     16 C         138.7442  141.4772  162.2982 C.ar    1  UNL1        0.0738
     17 C         138.7636  141.9567  160.8770 C.ar    1  UNL1        0.2634
     18 O         138.1834  143.2955  160.5292 O.2     1  UNL1       -0.2669
     19 C         139.8852  138.3200  164.4149 C.3     1  UNL1        0.4200
     20 F         140.4654  136.9812  164.7626 F       1  UNL1       -0.1658
     21 F         141.2255  138.9574  164.6327 F       1  UNL1       -0.1658
     22 F         138.5450  137.6826  164.1970 F       1  UNL1       -0.1658
     23 O         142.3420  136.3217  155.8579 O.3     1  UNL1       -0.4791
     24 C         142.5413  134.8542  156.0959 C.3     1  UNL1        0.1687
     25 C         141.7129  133.8535  155.3461 C.3     1  UNL1        0.0609
     26 C         141.9122  132.3860  155.5841 C.3     1  UNL1        0.0758
     27 N         142.9400  131.9191  156.5719 N.3     1  UNL1       -0.2737
     28 C         143.7685  132.9199  157.3217 C.3     1  UNL1        0.0758
     29 C         143.5691  134.3874  157.0836 C.3     1  UNL1        0.0609
     30 C         143.1393  130.4516  156.8099 C.3     1  UNL1        0.0575
     31 C         142.5726  129.1947  156.2191 C.3     1  UNL1        0.0160
     32 C         143.4212  128.3762  157.1464 C.3     1  UNL1        0.0028
     33 C         143.9879  129.6331  157.7372 C.3     1  UNL1        0.0160
@<TRIPOS>BOND
     1     7     8    1
     2     8     9   ar
     3     9     1    1
     4     1     2   ar
     5     2     3   ar
     6     3     4   ar
     7     4    23    1
     8    23    24    1
     9    24    25    1
    10    25    26    1
    11    26    27    1
    12    27    30    1
    13    30    31    1
    14    31    32    1
    15    32    33    1
    16    27    28    1
    17    28    29    1
    18     4     5   ar
    19     5     6   ar
    20     9    10   ar
    21    10    11   ar
    22    11    12   ar
    23    12    19    1
    24    19    20    1
    25    19    21    1
    26    19    22    1
    27    12    13   ar
    28    13    14   ar
    29    14    15   ar
    30    15    16   ar
    31    16    17   ar
    32    17    18    2
    33    17     8   ar
    34     6     1   ar
    35    16    11   ar
    36    29    24    1
    37    33    30    1
@<TRIPOS>MOLECULE
*****
 33 37 0 0 0
SMALL
GASTEIGER

@<TRIPOS>ATOM
      1 C         141.0198  139.2474  161.9017 C.ar    1  UNL1        0.0344
      2 C         140.3429  140.0234  160.8111 C.ar    1  UNL1        0.0061
      3 C         140.7199  139.7883  159.3784 C.ar    1  UNL1        0.0370
      4 C         141.7738  138.7772  159.0364 C.ar    1  UNL1        0.1384
      5 C         142.4507  138.0012  160.1271 C.ar    1  UNL1        0.0370
      6 C         142.0737  138.2363  161.5597 C.ar    1  UNL1        0.0061
      7 C         138.9245  137.5383  163.2012 C.3     1  UNL1        0.1350
      8 N         139.5951  138.6279  163.9842 N.ar    1  UNL1       -0.2786
      9 C         140.6428  139.4825  163.3345 C.ar    1  UNL1        0.1460
     10 N         141.3134  140.5721  164.1174 N.ar    1  UNL1       -0.2281
     11 C         140.9364  140.8072  165.5501 C.ar    1  UNL1        0.0914
     12 C         141.6070  141.8968  166.3330 C.ar    1  UNL1        0.0892
     13 C         141.2300  142.1318  167.7657 C.ar    1  UNL1        0.0054
     14 C         140.1824  141.2773  168.4154 C.ar    1  UNL1        0.0002
     15 C         139.5118  140.1877  167.6325 C.ar    1  UNL1        0.0062
     16 C         139.8888  139.9526  166.1999 C.ar    1  UNL1        0.0738
     17 C         139.2181  138.8630  165.4169 C.ar    1  UNL1        0.2634
     18 O         138.1705  138.0084  166.0666 O.2     1  UNL1       -0.2669
     19 C         142.6547  142.7513  165.6833 C.3     1  UNL1        0.4200
     20 F         143.7023  143.6059  165.0335 F       1  UNL1       -0.1658
     21 F         143.7240  141.8405  166.2095 F       1  UNL1       -0.1658
     22 F         141.5853  143.6622  165.1570 F       1  UNL1       -0.1658
     23 O         142.1508  138.5421  157.6037 O.3     1  UNL1       -0.4791
     24 C         143.3365  139.2473  157.0147 C.3     1  UNL1        0.1687
     25 C         143.9501  140.4117  157.7341 C.3     1  UNL1        0.0609
     26 C         145.1358  141.1169  157.1452 C.3     1  UNL1        0.0758
     27 N         145.7078  140.6576  155.8367 N.3     1  UNL1       -0.2737
     28 C         145.0942  139.4932  155.1173 C.3     1  UNL1        0.0758
     29 C         143.9085  138.7880  155.7064 C.3     1  UNL1        0.0609
     30 C         146.8935  141.3628  155.2478 C.3     1  UNL1        0.0575
     31 C         147.4016  141.6031  153.8571 C.3     1  UNL1        0.0160
     32 C         148.5703  142.3601  154.4149 C.3     1  UNL1        0.0028
     33 C         148.0622  142.1198  155.8056 C.3     1  UNL1        0.0160
@<TRIPOS>BOND
     1     7     8    1
     2     8     9   ar
     3     9     1    1
     4     1     2   ar
     5     2     3   ar
     6     3     4   ar
     7     4    23    1
     8    23    24    1
     9    24    25    1
    10    25    26    1
    11    26    27    1
    12    27    30    1
    13    30    31    1
    14    31    32    1
    15    32    33    1
    16    27    28    1
    17    28    29    1
    18     4     5   ar
    19     5     6   ar
    20     9    10   ar
    21    10    11   ar
    22    11    12   ar
    23    12    19    1
    24    19    20    1
    25    19    21    1
    26    19    22    1
    27    12    13   ar
    28    13    14   ar
    29    14    15   ar
    30    15    16   ar
    31    16    17   ar
    32    17    18    2
    33    17     8   ar
    34     6     1   ar
    35    16    11   ar
    36    29    24    1
    37    33    30    1
