@<TRIPOS>MOLECULE
*****
 33 37 0 0 0
SMALL
GASTEIGER

@<TRIPOS>ATOM
      1 C         141.2911  142.5013  163.7259 C.ar    1  UNL1        0.1065
      2 N         142.6483  142.2103  163.1572 N.ar    1  UNL1       -0.1679
      3 N         142.8846  143.1542  162.0156 N.ar    1  UNL1       -0.2338
      4 C         141.6735  144.0285  161.8787 C.ar    1  UNL1        0.1653
      5 N         141.3402  145.1400  160.9282 N.ar    1  UNL1       -0.2050
      6 C         140.0220  145.8480  161.0347 C.ar    1  UNL1        0.2014
      7 N         139.0372  145.4444  162.0917 N.ar    1  UNL1       -0.2093
      8 C         139.3705  144.3330  163.0422 C.ar    1  UNL1        0.1316
      9 N         138.3857  143.9294  164.0993 N.pl3   1  UNL1       -0.3425
     10 C         140.6886  143.6250  162.9358 C.ar    1  UNL1        0.0860
     11 H         137.5205  144.3941  164.1692 H       1  UNL1        0.1437
     12 H         138.6044  143.1999  164.7232 H       1  UNL1        0.1437
     13 C         138.8672  140.2155  169.7384 C.ar    1  UNL1        0.1386
     14 C         139.6531  141.4716  169.9714 C.ar    1  UNL1        0.0369
     15 C         140.2951  142.1800  168.8156 C.ar    1  UNL1        0.0031
     16 C         140.1511  141.6323  167.4266 C.ar    1  UNL1        0.0002
     17 C         140.7931  142.3406  166.2707 C.ar    1  UNL1        0.0016
     18 C         140.6491  141.7929  164.8818 C.ar    1  UNL1        0.0195
     19 C         139.8631  140.5367  164.6487 C.ar    1  UNL1        0.0016
     20 C         139.2211  139.8284  165.8046 C.ar    1  UNL1        0.0001
     21 C         139.3651  140.3762  167.1936 C.ar    1  UNL1        0.0030
     22 C         138.7232  139.6678  168.3494 C.ar    1  UNL1        0.0369
     23 O         138.2252  139.5072  170.8943 O.3     1  UNL1       -0.4755
     24 C         136.2254  138.0992  171.7708 C.3     1  UNL1        0.0512
     25 C         136.7742  139.1322  170.8319 C.3     1  UNL1        0.2055
     26 C         144.1158  143.2134  161.1609 C.3     1  UNL1        0.1325
     27 C         144.2171  142.3599  159.9315 C.3     1  UNL1        0.0641
     28 C         144.8694  142.5073  158.5889 C.3     1  UNL1        0.0971
     29 N         144.3604  141.1530  158.1929 N.am    1  UNL1       -0.2793
     30 C         144.4617  140.2995  156.9636 C.2     1  UNL1        0.2261
     31 C         145.2234  140.7923  155.7691 C.3     1  UNL1        0.0948
     32 O         143.8011  138.9531  156.9287 O.2     1  UNL1       -0.2749
     33 C         143.7081  141.0056  159.5356 C.3     1  UNL1        0.0971
@<TRIPOS>BOND
     1    24    25    1
     2    25    23    1
     3    23    13    1
     4    13    14   ar
     5    14    15   ar
     6    15    16   ar
     7    16    17   ar
     8    17    18   ar
     9    18     1    1
    10     1     2   ar
    11     2     3   ar
    12     3    26    1
    13    26    27    1
    14    27    28    1
    15    28    29    1
    16    29    30   am
    17    30    31    1
    18    30    32    2
    19    29    33    1
    20     3     4   ar
    21     4     5   ar
    22     5     6   ar
    23     6     7   ar
    24     7     8   ar
    25     8     9    1
    26     8    10   ar
    27    18    19   ar
    28    19    20   ar
    29    20    21   ar
    30    21    22   ar
    31    22    13   ar
    32    21    16   ar
    33    10     1   ar
    34    33    27    1
    35    10     4   ar
    36     9    11    1
    37     9    12    1
@<TRIPOS>MOLECULE
*****
 33 37 0 0 0
SMALL
GASTEIGER

@<TRIPOS>ATOM
      1 C         140.3330  138.7563  161.0299 C.ar    1  UNL1        0.1065
      2 N         141.6168  138.2359  160.4545 N.ar    1  UNL1       -0.1679
      3 N         141.5715  138.4317  158.9680 N.ar    1  UNL1       -0.2338
      4 C         140.2597  139.0731  158.6247 C.ar    1  UNL1        0.1653
      5 N         139.6633  139.5004  157.3164 N.ar    1  UNL1       -0.2050
      6 C         138.3014  140.1284  157.2824 C.ar    1  UNL1        0.2014
      7 N         137.5360  140.3290  158.5568 N.ar    1  UNL1       -0.2093
      8 C         138.1324  139.9017  159.8651 C.ar    1  UNL1        0.1316
      9 N         137.3670  140.1022  161.1394 N.pl3   1  UNL1       -0.3425
     10 C         139.4942  139.2738  159.8990 C.ar    1  UNL1        0.0860
     11 H         136.4732  140.5144  161.1171 H       1  UNL1        0.1437
     12 H         137.7585  139.8218  161.9981 H       1  UNL1        0.1437
     13 C         139.2283  139.9100  167.7156 C.ar    1  UNL1        0.1386
     14 C         140.0164  141.0511  167.1441 C.ar    1  UNL1        0.0369
     15 C         140.3950  141.0486  165.6927 C.ar    1  UNL1        0.0031
     16 C         139.9854  139.9050  164.8127 C.ar    1  UNL1        0.0002
     17 C         140.3640  139.9024  163.3613 C.ar    1  UNL1        0.0016
     18 C         139.9544  138.7588  162.4814 C.ar    1  UNL1        0.0195
     19 C         139.1662  137.6176  163.0529 C.ar    1  UNL1        0.0016
     20 C         138.7877  137.6202  164.5043 C.ar    1  UNL1        0.0001
     21 C         139.1973  138.7639  165.3842 C.ar    1  UNL1        0.0030
     22 C         138.8187  138.7664  166.8357 C.ar    1  UNL1        0.0369
     23 O         138.8497  139.9125  169.1670 O.3     1  UNL1       -0.4755
     24 C         141.1970  139.6376  170.2461 C.3     1  UNL1        0.0512
     25 C         139.8573  140.3110  170.2043 C.3     1  UNL1        0.2055
     26 C         142.6488  138.0527  157.9955 C.3     1  UNL1        0.1325
     27 C         142.5127  136.8048  157.1744 C.3     1  UNL1        0.0641
     28 C         143.1849  135.4639  157.1633 C.3     1  UNL1        0.0971
     29 N         142.3203  135.0400  156.0132 N.am    1  UNL1       -0.2793
     30 C         142.1842  133.7920  155.1921 C.2     1  UNL1        0.2261
     31 C         143.0573  132.6066  155.4789 C.3     1  UNL1        0.0948
     32 O         141.1749  133.7296  154.0841 O.2     1  UNL1       -0.2749
     33 C         141.6480  136.3808  156.0244 C.3     1  UNL1        0.0971
@<TRIPOS>BOND
     1    24    25    1
     2    25    23    1
     3    23    13    1
     4    13    14   ar
     5    14    15   ar
     6    15    16   ar
     7    16    17   ar
     8    17    18   ar
     9    18     1    1
    10     1     2   ar
    11     2     3   ar
    12     3    26    1
    13    26    27    1
    14    27    28    1
    15    28    29    1
    16    29    30   am
    17    30    31    1
    18    30    32    2
    19    29    33    1
    20     3     4   ar
    21     4     5   ar
    22     5     6   ar
    23     6     7   ar
    24     7     8   ar
    25     8     9    1
    26     8    10   ar
    27    18    19   ar
    28    19    20   ar
    29    20    21   ar
    30    21    22   ar
    31    22    13   ar
    32    21    16   ar
    33    10     1   ar
    34    33    27    1
    35    10     4   ar
    36     9    11    1
    37     9    12    1
@<TRIPOS>MOLECULE
*****
 33 37 0 0 0
SMALL
GASTEIGER

@<TRIPOS>ATOM
      1 C         140.9619  138.7302  160.0684 C.ar    1  UNL1        0.1065
      2 N         142.1343  137.9567  159.5421 N.ar    1  UNL1       -0.1679
      3 N         141.9931  137.8576  158.0520 N.ar    1  UNL1       -0.2338
      4 C         140.7334  138.5699  157.6575 C.ar    1  UNL1        0.1653
      5 N         140.0842  138.7971  156.3245 N.ar    1  UNL1       -0.2050
      6 C         138.7977  139.5638  156.2376 C.ar    1  UNL1        0.2014
      7 N         138.1605  140.1031  157.4838 N.ar    1  UNL1       -0.2093
      8 C         138.8096  139.8758  158.8169 C.ar    1  UNL1        0.1316
      9 N         138.1724  140.4152  160.0631 N.pl3   1  UNL1       -0.3425
     10 C         140.0960  139.1093  158.9037 C.ar    1  UNL1        0.0860
     11 H         137.3281  140.9183  160.0061 H       1  UNL1        0.1437
     12 H         138.5984  140.2660  160.9380 H       1  UNL1        0.1437
     13 C         139.0484  139.1791  166.6553 C.ar    1  UNL1        0.1386
     14 C         138.4386  137.9499  166.0495 C.ar    1  UNL1        0.0369
     15 C         138.6993  137.6142  164.6110 C.ar    1  UNL1        0.0031
     16 C         139.5699  138.5079  163.7782 C.ar    1  UNL1        0.0002
     17 C         139.8306  138.1722  162.3397 C.ar    1  UNL1        0.0016
     18 C         140.7012  139.0659  161.5070 C.ar    1  UNL1        0.0195
     19 C         141.3110  140.2952  162.1127 C.ar    1  UNL1        0.0016
     20 C         141.0503  140.6309  163.5513 C.ar    1  UNL1        0.0001
     21 C         140.1797  139.7371  164.3840 C.ar    1  UNL1        0.0030
     22 C         139.9189  140.0728  165.8225 C.ar    1  UNL1        0.0369
     23 O         138.7876  139.5148  168.0938 O.3     1  UNL1       -0.4755
     24 C         140.3230  140.0095  170.1304 C.3     1  UNL1        0.0512
     25 C         139.7139  140.4380  168.8284 C.3     1  UNL1        0.2055
     26 C         142.9444  137.1674  157.1201 C.3     1  UNL1        0.1325
     27 C         142.7562  135.7148  156.7968 C.3     1  UNL1        0.0641
     28 C         141.8900  134.9435  155.8456 C.3     1  UNL1        0.0971
     29 N         142.4901  133.6605  156.3395 N.am    1  UNL1       -0.2793
     30 C         142.3019  132.2079  156.0161 C.2     1  UNL1        0.2261
     31 C         141.3099  131.7949  154.9695 C.3     1  UNL1        0.0948
     32 O         143.1057  131.1682  156.7394 O.2     1  UNL1       -0.2749
     33 C         143.3563  134.4318  157.2907 C.3     1  UNL1        0.0971
@<TRIPOS>BOND
     1    24    25    1
     2    25    23    1
     3    23    13    1
     4    13    14   ar
     5    14    15   ar
     6    15    16   ar
     7    16    17   ar
     8    17    18   ar
     9    18     1    1
    10     1     2   ar
    11     2     3   ar
    12     3    26    1
    13    26    27    1
    14    27    28    1
    15    28    29    1
    16    29    30   am
    17    30    31    1
    18    30    32    2
    19    29    33    1
    20     3     4   ar
    21     4     5   ar
    22     5     6   ar
    23     6     7   ar
    24     7     8   ar
    25     8     9    1
    26     8    10   ar
    27    18    19   ar
    28    19    20   ar
    29    20    21   ar
    30    21    22   ar
    31    22    13   ar
    32    21    16   ar
    33    10     1   ar
    34    33    27    1
    35    10     4   ar
    36     9    11    1
    37     9    12    1
@<TRIPOS>MOLECULE
*****
 33 37 0 0 0
SMALL
GASTEIGER

@<TRIPOS>ATOM
      1 C         141.7700  138.3580  160.5810 C.ar    1  UNL1        0.1065
      2 N         142.7707  137.6437  159.7217 N.ar    1  UNL1       -0.1679
      3 N         142.2810  137.6889  158.3046 N.ar    1  UNL1       -0.2338
      4 C         140.9776  138.4311  158.2880 C.ar    1  UNL1        0.1653
      5 N         140.0376  138.7838  157.1737 N.ar    1  UNL1       -0.2050
      6 C         138.7816  139.5502  157.4662 C.ar    1  UNL1        0.2014
      7 N         138.4658  139.9637  158.8730 N.ar    1  UNL1       -0.2093
      8 C         139.4058  139.6109  159.9874 C.ar    1  UNL1        0.1316
      9 N         139.0900  140.0244  161.3943 N.pl3   1  UNL1       -0.3425
     10 C         140.6617  138.8447  159.6949 C.ar    1  UNL1        0.0860
     11 H         138.2658  140.5274  161.5862 H       1  UNL1        0.1437
     12 H         139.7070  139.7929  162.1257 H       1  UNL1        0.1437
     13 C         142.6886  140.4108  167.0765 C.ar    1  UNL1        0.1386
     14 C         143.1501  141.4954  166.1488 C.ar    1  UNL1        0.0369
     15 C         143.0587  141.3017  164.6642 C.ar    1  UNL1        0.0031
     16 C         142.5058  140.0235  164.1072 C.ar    1  UNL1        0.0002
     17 C         142.4144  139.8299  162.6226 C.ar    1  UNL1        0.0016
     18 C         141.8614  138.5516  162.0656 C.ar    1  UNL1        0.0195
     19 C         141.3998  137.4669  162.9933 C.ar    1  UNL1        0.0016
     20 C         141.4912  137.6606  164.4779 C.ar    1  UNL1        0.0001
     21 C         142.0442  138.9389  165.0349 C.ar    1  UNL1        0.0030
     22 C         142.1356  139.1326  166.5195 C.ar    1  UNL1        0.0369
     23 O         142.7800  140.6044  168.5611 O.3     1  UNL1       -0.4755
     24 C         140.8787  139.8211  170.1490 C.3     1  UNL1        0.0512
     25 C         142.2030  139.5763  169.4885 C.3     1  UNL1        0.2055
     26 C         142.9731  137.0960  157.1132 C.3     1  UNL1        0.1325
     27 C         142.7640  135.6517  156.7663 C.3     1  UNL1        0.0641
     28 C         141.9011  134.9098  155.7891 C.3     1  UNL1        0.0971
     29 N         142.4682  133.6092  156.2757 N.am    1  UNL1       -0.2793
     30 C         142.2591  132.1649  155.9287 C.2     1  UNL1        0.2261
     31 C         141.2788  131.7849  154.8589 C.3     1  UNL1        0.0948
     32 O         143.0304  131.1006  156.6517 O.2     1  UNL1       -0.2749
     33 C         143.3312  134.3511  157.2529 C.3     1  UNL1        0.0971
@<TRIPOS>BOND
     1    24    25    1
     2    25    23    1
     3    23    13    1
     4    13    14   ar
     5    14    15   ar
     6    15    16   ar
     7    16    17   ar
     8    17    18   ar
     9    18     1    1
    10     1     2   ar
    11     2     3   ar
    12     3    26    1
    13    26    27    1
    14    27    28    1
    15    28    29    1
    16    29    30   am
    17    30    31    1
    18    30    32    2
    19    29    33    1
    20     3     4   ar
    21     4     5   ar
    22     5     6   ar
    23     6     7   ar
    24     7     8   ar
    25     8     9    1
    26     8    10   ar
    27    18    19   ar
    28    19    20   ar
    29    20    21   ar
    30    21    22   ar
    31    22    13   ar
    32    21    16   ar
    33    10     1   ar
    34    33    27    1
    35    10     4   ar
    36     9    11    1
    37     9    12    1
@<TRIPOS>MOLECULE
*****
 33 37 0 0 0
SMALL
GASTEIGER

@<TRIPOS>ATOM
      1 C         139.3346  143.3443  160.6766 C.ar    1  UNL1        0.1065
      2 N         138.2951  142.5963  159.8956 N.ar    1  UNL1       -0.1679
      3 N         138.5089  142.8892  158.4401 N.ar    1  UNL1       -0.2338
      4 C         139.6806  143.8183  158.3215 C.ar    1  UNL1        0.1653
      5 N         140.3487  144.4445  157.1335 N.ar    1  UNL1       -0.2050
      6 C         141.5272  145.3521  157.3277 C.ar    1  UNL1        0.2014
      7 N         142.0375  145.6334  158.7100 N.ar    1  UNL1       -0.2093
      8 C         141.3693  145.0071  159.8980 C.ar    1  UNL1        0.1316
      9 N         141.8795  145.2884  161.2802 N.pl3   1  UNL1       -0.3425
     10 C         140.1909  144.0996  159.7037 C.ar    1  UNL1        0.0860
     11 H         142.6530  145.8840  161.4077 H       1  UNL1        0.1437
     12 H         141.4410  144.8774  162.0599 H       1  UNL1        0.1437
     13 C         140.9542  142.4035  167.2903 C.ar    1  UNL1        0.1386
     14 C         141.7947  141.4932  166.4447 C.ar    1  UNL1        0.0369
     15 C         141.6388  141.4994  164.9528 C.ar    1  UNL1        0.0031
     16 C         140.6425  142.4157  164.3066 C.ar    1  UNL1        0.0002
     17 C         140.4867  142.4218  162.8147 C.ar    1  UNL1        0.0016
     18 C         139.4904  143.3382  162.1684 C.ar    1  UNL1        0.0195
     19 C         138.6499  144.2485  163.0141 C.ar    1  UNL1        0.0016
     20 C         138.8057  144.2423  164.5059 C.ar    1  UNL1        0.0001
     21 C         139.8021  143.3259  165.1522 C.ar    1  UNL1        0.0030
     22 C         139.9579  143.3198  166.6441 C.ar    1  UNL1        0.0369
     23 O         141.1101  142.3973  168.7822 O.3     1  UNL1       -0.4755
     24 C         139.4555  140.4205  169.1056 C.3     1  UNL1        0.0512
     25 C         140.1270  141.6525  169.6359 C.3     1  UNL1        0.2055
     26 C         137.6943  142.3481  157.3028 C.3     1  UNL1        0.1325
     27 C         138.0484  141.0260  156.6891 C.3     1  UNL1        0.0641
     28 C         137.6221  140.2789  155.4602 C.3     1  UNL1        0.0971
     29 N         138.5492  139.1563  155.8210 N.am    1  UNL1       -0.2793
     30 C         138.9033  137.8342  155.2072 C.2     1  UNL1        0.2261
     31 C         138.2517  137.4031  153.9268 C.3     1  UNL1        0.0948
     32 O         139.9092  136.9432  155.8739 O.2     1  UNL1       -0.2749
     33 C         138.9755  139.9034  157.0499 C.3     1  UNL1        0.0971
@<TRIPOS>BOND
     1    24    25    1
     2    25    23    1
     3    23    13    1
     4    13    14   ar
     5    14    15   ar
     6    15    16   ar
     7    16    17   ar
     8    17    18   ar
     9    18     1    1
    10     1     2   ar
    11     2     3   ar
    12     3    26    1
    13    26    27    1
    14    27    28    1
    15    28    29    1
    16    29    30   am
    17    30    31    1
    18    30    32    2
    19    29    33    1
    20     3     4   ar
    21     4     5   ar
    22     5     6   ar
    23     6     7   ar
    24     7     8   ar
    25     8     9    1
    26     8    10   ar
    27    18    19   ar
    28    19    20   ar
    29    20    21   ar
    30    21    22   ar
    31    22    13   ar
    32    21    16   ar
    33    10     1   ar
    34    33    27    1
    35    10     4   ar
    36     9    11    1
    37     9    12    1
@<TRIPOS>MOLECULE
*****
 33 37 0 0 0
SMALL
GASTEIGER

@<TRIPOS>ATOM
      1 C         139.7093  139.5213  161.4160 C.ar    1  UNL1        0.1065
      2 N         138.8053  140.2280  160.4499 N.ar    1  UNL1       -0.1679
      3 N         139.3294  139.9888  159.0649 N.ar    1  UNL1       -0.2338
      4 C         140.5573  139.1344  159.1751 C.ar    1  UNL1        0.1653
      5 N         141.4920  138.5821  158.1400 N.ar    1  UNL1       -0.2050
      6 C         142.6615  137.7409  158.5581 C.ar    1  UNL1        0.2014
      7 N         142.8963  137.4520  160.0111 N.ar    1  UNL1       -0.2093
      8 C         141.9616  138.0043  161.0462 C.ar    1  UNL1        0.1316
      9 N         142.1964  137.7153  162.4993 N.pl3   1  UNL1       -0.3425
     10 C         140.7921  138.8454  160.6282 C.ar    1  UNL1        0.0860
     11 H         142.9639  137.1632  162.7736 H       1  UNL1        0.1437
     12 H         141.5829  138.0778  163.1786 H       1  UNL1        0.1437
     13 C         139.6519  140.5381  168.2140 C.ar    1  UNL1        0.1386
     14 C         140.3550  141.6857  167.5518 C.ar    1  UNL1        0.0369
     15 C         140.5071  141.7118  166.0598 C.ar    1  UNL1        0.0031
     16 C         139.9561  140.5904  165.2300 C.ar    1  UNL1        0.0002
     17 C         140.1082  140.6166  163.7379 C.ar    1  UNL1        0.0016
     18 C         139.5571  139.4952  162.9081 C.ar    1  UNL1        0.0195
     19 C         138.8539  138.3475  163.5702 C.ar    1  UNL1        0.0016
     20 C         138.7018  138.3213  165.0623 C.ar    1  UNL1        0.0001
     21 C         139.2529  139.4428  165.8921 C.ar    1  UNL1        0.0030
     22 C         139.1008  139.4166  167.3842 C.ar    1  UNL1        0.0369
     23 O         139.4998  140.5119  169.7061 O.3     1  UNL1       -0.4755
     24 C         141.8154  139.3670  169.9833 C.3     1  UNL1        0.0512
     25 C         140.6616  140.1236  170.5717 C.3     1  UNL1        0.2055
     26 C         138.7307  140.5122  157.7931 C.3     1  UNL1        0.1325
     27 C         138.9558  141.9394  157.3899 C.3     1  UNL1        0.0641
     28 C         138.3395  142.8677  156.3857 C.3     1  UNL1        0.0971
     29 N         139.2742  143.9577  156.8197 N.am    1  UNL1       -0.2793
     30 C         139.4993  145.3849  156.4166 C.2     1  UNL1        0.2261
     31 C         138.6621  145.9995  155.3343 C.3     1  UNL1        0.0948
     32 O         140.5617  146.1974  157.0957 O.2     1  UNL1       -0.2749
     33 C         139.8905  143.0294  157.8239 C.3     1  UNL1        0.0971
@<TRIPOS>BOND
     1    24    25    1
     2    25    23    1
     3    23    13    1
     4    13    14   ar
     5    14    15   ar
     6    15    16   ar
     7    16    17   ar
     8    17    18   ar
     9    18     1    1
    10     1     2   ar
    11     2     3   ar
    12     3    26    1
    13    26    27    1
    14    27    28    1
    15    28    29    1
    16    29    30   am
    17    30    31    1
    18    30    32    2
    19    29    33    1
    20     3     4   ar
    21     4     5   ar
    22     5     6   ar
    23     6     7   ar
    24     7     8   ar
    25     8     9    1
    26     8    10   ar
    27    18    19   ar
    28    19    20   ar
    29    20    21   ar
    30    21    22   ar
    31    22    13   ar
    32    21    16   ar
    33    10     1   ar
    34    33    27    1
    35    10     4   ar
    36     9    11    1
    37     9    12    1
@<TRIPOS>MOLECULE
*****
 33 37 0 0 0
SMALL
GASTEIGER

@<TRIPOS>ATOM
      1 C         143.6179  140.5057  161.2919 C.ar    1  UNL1        0.1065
      2 N         144.0477  141.8118  160.6924 N.ar    1  UNL1       -0.1679
      3 N         144.0619  141.6547  159.2007 N.ar    1  UNL1       -0.2338
      4 C         143.6409  140.2516  158.8783 C.ar    1  UNL1        0.1653
      5 N         143.4719  139.5288  157.5748 N.ar    1  UNL1       -0.2050
      6 C         143.0284  138.0958  157.5638 C.ar    1  UNL1        0.2014
      7 N         142.7540  137.3857  158.8563 N.ar    1  UNL1       -0.2093
      8 C         142.9230  138.1085  160.1597 C.ar    1  UNL1        0.1316
      9 N         142.6485  137.3984  161.4522 N.pl3   1  UNL1       -0.3425
     10 C         143.3664  139.5414  160.1707 C.ar    1  UNL1        0.0860
     11 H         142.3575  136.4579  161.4450 H       1  UNL1        0.1437
     12 H         142.7595  137.8728  162.3077 H       1  UNL1        0.1437
     13 C         141.7580  139.7467  167.8657 C.ar    1  UNL1        0.1386
     14 C         140.6569  140.4416  167.1210 C.ar    1  UNL1        0.0369
     15 C         140.8086  140.7323  165.6573 C.ar    1  UNL1        0.0031
     16 C         142.0615  140.3283  164.9383 C.ar    1  UNL1        0.0002
     17 C         142.2132  140.6190  163.4746 C.ar    1  UNL1        0.0016
     18 C         143.4661  140.2150  162.7556 C.ar    1  UNL1        0.0195
     19 C         144.5673  139.5201  163.5003 C.ar    1  UNL1        0.0016
     20 C         144.4156  139.2293  164.9641 C.ar    1  UNL1        0.0001
     21 C         143.1626  139.6334  165.6830 C.ar    1  UNL1        0.0030
     22 C         143.0109  139.3427  167.1467 C.ar    1  UNL1        0.0369
     23 O         141.6062  139.4560  169.3294 O.3     1  UNL1       -0.4755
     24 C         142.4061  141.6585  170.4514 C.3     1  UNL1        0.0512
     25 C         142.4716  140.1650  170.3286 C.3     1  UNL1        0.2055
     26 C         144.4322  142.7146  158.2060 C.3     1  UNL1        0.1325
     27 C         145.4640  142.4295  157.1553 C.3     1  UNL1        0.0641
     28 C         146.9625  142.4714  157.1013 C.3     1  UNL1        0.0971
     29 N         146.9234  142.0262  155.6694 N.am    1  UNL1       -0.2793
     30 C         147.9552  141.7410  154.6187 C.2     1  UNL1        0.2261
     31 C         149.4127  141.8968  154.9371 C.3     1  UNL1        0.0948
     32 O         147.5295  141.3001  153.2496 O.2     1  UNL1       -0.2749
     33 C         145.4249  141.9843  155.7234 C.3     1  UNL1        0.0971
@<TRIPOS>BOND
     1    24    25    1
     2    25    23    1
     3    23    13    1
     4    13    14   ar
     5    14    15   ar
     6    15    16   ar
     7    16    17   ar
     8    17    18   ar
     9    18     1    1
    10     1     2   ar
    11     2     3   ar
    12     3    26    1
    13    26    27    1
    14    27    28    1
    15    28    29    1
    16    29    30   am
    17    30    31    1
    18    30    32    2
    19    29    33    1
    20     3     4   ar
    21     4     5   ar
    22     5     6   ar
    23     6     7   ar
    24     7     8   ar
    25     8     9    1
    26     8    10   ar
    27    18    19   ar
    28    19    20   ar
    29    20    21   ar
    30    21    22   ar
    31    22    13   ar
    32    21    16   ar
    33    10     1   ar
    34    33    27    1
    35    10     4   ar
    36     9    11    1
    37     9    12    1
@<TRIPOS>MOLECULE
*****
 33 37 0 0 0
SMALL
GASTEIGER

@<TRIPOS>ATOM
      1 C         140.7775  141.9675  161.9519 C.ar    1  UNL1        0.1065
      2 N         141.3889  141.1174  160.8779 N.ar    1  UNL1       -0.1679
      3 N         141.4967  141.9486  159.6339 N.ar    1  UNL1       -0.2338
      4 C         140.9519  143.3125  159.9391 C.ar    1  UNL1        0.1653
      5 N         140.8030  144.5452  159.0976 N.ar    1  UNL1       -0.2050
      6 C         140.2097  145.7897  159.6888 C.ar    1  UNL1        0.2014
      7 N         139.7652  145.8014  161.1214 N.ar    1  UNL1       -0.2093
      8 C         139.9140  144.5686  161.9628 C.ar    1  UNL1        0.1316
      9 N         139.4695  144.5802  163.3954 N.pl3   1  UNL1       -0.3425
     10 C         140.5073  143.3242  161.3717 C.ar    1  UNL1        0.0860
     11 H         139.0801  145.3970  163.7834 H       1  UNL1        0.1437
     12 H         139.5672  143.7711  163.9477 H       1  UNL1        0.1437
     13 C         140.7408  140.0608  168.5560 C.ar    1  UNL1        0.1386
     14 C         142.1557  140.3085  168.1243 C.ar    1  UNL1        0.0369
     15 C         142.4461  140.7394  166.7171 C.ar    1  UNL1        0.0031
     16 C         141.3214  140.9226  165.7417 C.ar    1  UNL1        0.0002
     17 C         141.6118  141.3534  164.3345 C.ar    1  UNL1        0.0016
     18 C         140.4871  141.5366  163.3591 C.ar    1  UNL1        0.0195
     19 C         139.0720  141.2889  163.7907 C.ar    1  UNL1        0.0016
     20 C         138.7817  140.8580  165.1979 C.ar    1  UNL1        0.0001
     21 C         139.9065  140.6749  166.1734 C.ar    1  UNL1        0.0030
     22 C         139.6161  140.2440  167.5805 C.ar    1  UNL1        0.0369
     23 O         140.4504  139.6299  169.9631 O.3     1  UNL1       -0.4755
     24 C         140.4288  142.0699  170.8553 C.3     1  UNL1        0.0512
     25 C         140.6165  140.6010  171.0942 C.3     1  UNL1        0.2055
     26 C         142.0518  141.4957  158.3162 C.3     1  UNL1        0.1325
     27 C         143.4716  141.8136  157.9513 C.3     1  UNL1        0.0641
     28 C         144.3476  141.5434  156.7640 C.3     1  UNL1        0.0971
     29 N         145.4795  142.2632  157.4353 N.am    1  UNL1       -0.2793
     30 C         146.8993  142.5811  157.0705 C.2     1  UNL1        0.2261
     31 C         147.4525  142.1339  155.7499 C.3     1  UNL1        0.0948
     32 O         147.7659  143.3464  158.0263 O.2     1  UNL1       -0.2749
     33 C         144.6035  142.5334  158.6226 C.3     1  UNL1        0.0971
@<TRIPOS>BOND
     1    24    25    1
     2    25    23    1
     3    23    13    1
     4    13    14   ar
     5    14    15   ar
     6    15    16   ar
     7    16    17   ar
     8    17    18   ar
     9    18     1    1
    10     1     2   ar
    11     2     3   ar
    12     3    26    1
    13    26    27    1
    14    27    28    1
    15    28    29    1
    16    29    30   am
    17    30    31    1
    18    30    32    2
    19    29    33    1
    20     3     4   ar
    21     4     5   ar
    22     5     6   ar
    23     6     7   ar
    24     7     8   ar
    25     8     9    1
    26     8    10   ar
    27    18    19   ar
    28    19    20   ar
    29    20    21   ar
    30    21    22   ar
    31    22    13   ar
    32    21    16   ar
    33    10     1   ar
    34    33    27    1
    35    10     4   ar
    36     9    11    1
    37     9    12    1
@<TRIPOS>MOLECULE
*****
 33 37 0 0 0
SMALL
GASTEIGER

@<TRIPOS>ATOM
      1 C         140.9089  142.4207  162.2940 C.ar    1  UNL1        0.1065
      2 N         140.9337  141.5273  161.0894 N.ar    1  UNL1       -0.1679
      3 N         140.5833  142.3569  159.8897 N.ar    1  UNL1       -0.2338
      4 C         140.3418  143.7630  160.3530 C.ar    1  UNL1        0.1653
      5 N         139.9647  145.0125  159.6138 N.ar    1  UNL1       -0.2050
      6 C         139.7889  146.3016  160.3606 C.ar    1  UNL1        0.2014
      7 N         139.9902  146.3410  161.8465 N.ar    1  UNL1       -0.2093
      8 C         140.3672  145.0915  162.5857 C.ar    1  UNL1        0.1316
      9 N         140.5685  145.1309  164.0716 N.pl3   1  UNL1       -0.3425
     10 C         140.5431  143.8025  161.8390 C.ar    1  UNL1        0.0860
     11 H         140.4531  145.9769  164.5617 H       1  UNL1        0.1437
     12 H         140.8160  144.3108  164.5568 H       1  UNL1        0.1437
     13 C         140.9896  140.1378  168.7772 C.ar    1  UNL1        0.1386
     14 C         139.6201  139.9318  168.2012 C.ar    1  UNL1        0.0369
     15 C         139.3300  140.3472  166.7893 C.ar    1  UNL1        0.0031
     16 C         140.4095  140.9686  165.9535 C.ar    1  UNL1        0.0002
     17 C         140.1194  141.3840  164.5417 C.ar    1  UNL1        0.0016
     18 C         141.1989  142.0053  163.7059 C.ar    1  UNL1        0.0195
     19 C         142.5686  142.2113  164.2820 C.ar    1  UNL1        0.0016
     20 C         142.8586  141.7960  165.6938 C.ar    1  UNL1        0.0001
     21 C         141.7790  141.1746  166.5296 C.ar    1  UNL1        0.0030
     22 C         142.0691  140.7592  167.9415 C.ar    1  UNL1        0.0369
     23 O         141.2796  139.7224  170.1891 O.3     1  UNL1       -0.4755
     24 C         140.6483  142.1020  171.0193 C.3     1  UNL1        0.0512
     25 C         141.0933  140.6997  171.3117 C.3     1  UNL1        0.2055
     26 C         140.4905  141.8665  158.4753 C.3     1  UNL1        0.1325
     27 C         139.1477  141.6278  157.8508 C.3     1  UNL1        0.0641
     28 C         138.4219  142.1714  156.6559 C.3     1  UNL1        0.0971
     29 N         137.2487  141.2903  156.9676 N.am    1  UNL1       -0.2793
     30 C         135.9059  141.0516  156.3432 C.2     1  UNL1        0.2261
     31 C         135.5085  141.8047  155.1083 C.3     1  UNL1        0.0948
     32 O         134.9605  140.0597  156.9536 O.2     1  UNL1       -0.2749
     33 C         137.9745  140.7467  158.1625 C.3     1  UNL1        0.0971
@<TRIPOS>BOND
     1    24    25    1
     2    25    23    1
     3    23    13    1
     4    13    14   ar
     5    14    15   ar
     6    15    16   ar
     7    16    17   ar
     8    17    18   ar
     9    18     1    1
    10     1     2   ar
    11     2     3   ar
    12     3    26    1
    13    26    27    1
    14    27    28    1
    15    28    29    1
    16    29    30   am
    17    30    31    1
    18    30    32    2
    19    29    33    1
    20     3     4   ar
    21     4     5   ar
    22     5     6   ar
    23     6     7   ar
    24     7     8   ar
    25     8     9    1
    26     8    10   ar
    27    18    19   ar
    28    19    20   ar
    29    20    21   ar
    30    21    22   ar
    31    22    13   ar
    32    21    16   ar
    33    10     1   ar
    34    33    27    1
    35    10     4   ar
    36     9    11    1
    37     9    12    1
