@<TRIPOS>MOLECULE
*****
 34 37 0 0 0
SMALL
GASTEIGER

@<TRIPOS>ATOM
      1 C         142.9271  137.9264  158.1976 C.3     1  UNL1        0.0898
      2 C         142.5664  138.4231  159.5662 C.3     1  UNL1        0.0224
      3 C         141.4289  139.3854  159.7392 C.3     1  UNL1        0.0191
      4 C         141.0682  139.8821  161.1078 C.3     1  UNL1        0.0722
      5 N         141.8451  139.4165  162.3035 N.3     1  UNL1       -0.2724
      6 C         142.9827  138.4543  162.1306 C.3     1  UNL1        0.0722
      7 C         143.3434  137.9575  160.7618 C.3     1  UNL1        0.0191
      8 C         141.4844  139.9133  163.6721 C.3     1  UNL1        0.0768
      9 C         142.0623  139.2502  164.8872 C.3     1  UNL1        0.0437
     10 C         141.4580  139.5004  166.2370 C.ar    1  UNL1       -0.0208
     11 C         139.9722  139.6515  166.3772 C.ar    1  UNL1       -0.0042
     12 C         139.3678  139.9017  167.7270 C.ar    1  UNL1        0.0008
     13 C         140.2492  140.0007  168.9367 C.ar    1  UNL1        0.0140
     14 C         141.7349  139.8496  168.7965 C.ar    1  UNL1        0.0008
     15 C         142.3394  139.5994  167.4467 C.ar    1  UNL1       -0.0042
     16 C         139.6447  140.2509  170.2866 C.2     1  UNL1        0.0729
     17 O         138.2502  139.7840  170.5822 O.co2   1  UNL1       -0.5446
     18 O         140.4348  140.9680  171.3409 O.co2   1  UNL1       -0.5446
     19 C         143.2485  135.8919  156.6139 C.2     1  UNL1        0.2654
     20 O         144.2935  136.6508  155.8512 O.2     1  UNL1       -0.2684
     21 N         142.5653  136.5298  157.7872 N.am    1  UNL1       -0.2996
     22 H         141.8793  136.0317  158.2879 H       1  UNL1        0.1498
     23 N         141.8081  132.6179  155.1068 N.ar    1  UNL1       -0.2527
     24 N         141.8298  134.1143  155.2096 N.ar    1  UNL1       -0.1647
     25 C         142.8866  134.4953  156.2035 C.ar    1  UNL1        0.1554
     26 C         143.5181  133.2345  156.7151 C.ar    1  UNL1        0.0411
     27 C         144.6138  132.9931  157.7105 C.ar    1  UNL1        0.0032
     28 C         145.0431  131.5914  158.0281 C.ar    1  UNL1        0.0001
     29 C         144.3765  130.4311  157.3503 C.ar    1  UNL1        0.0015
     30 C         143.2807  130.6725  156.3549 C.ar    1  UNL1        0.0188
     31 C         142.8515  132.0742  156.0373 C.ar    1  UNL1        0.0794
     32 C         140.9134  132.0175  152.7427 C.3     1  UNL1        0.0263
     33 C         140.9021  131.8076  154.2280 C.3     1  UNL1        0.1053
     34 C         139.9848  130.7874  154.8342 C.3     1  UNL1        0.0263
@<TRIPOS>UNITY_ATOM_ATTR
17 1
charge -1
@<TRIPOS>BOND
     1    32    33    1
     2    33    34    1
     3    33    23    1
     4    23    24   ar
     5    24    25   ar
     6    25    19    1
     7    19    20    2
     8    19    21   am
     9    21     1    1
    10     1     2    1
    11     2     3    1
    12     3     4    1
    13     4     5    1
    14     5     8    1
    15     8     9    1
    16     9    10    1
    17    10    11   ar
    18    11    12   ar
    19    12    13   ar
    20    13    16    1
    21    16    17   ar
    22    16    18   ar
    23    13    14   ar
    24    14    15   ar
    25     5     6    1
    26     6     7    1
    27    25    26   ar
    28    26    27   ar
    29    27    28   ar
    30    28    29   ar
    31    29    30   ar
    32    30    31   ar
    33    31    23   ar
    34     7     2    1
    35    31    26   ar
    36    15    10   ar
    37    21    22    1
@<TRIPOS>MOLECULE
*****
 34 37 0 0 0
SMALL
GASTEIGER

@<TRIPOS>ATOM
      1 C         142.2305  144.7763  162.4958 C.3     1  UNL1        0.0898
      2 C         142.6612  143.4989  163.1536 C.3     1  UNL1        0.0224
      3 C         142.9340  142.2813  162.3211 C.3     1  UNL1        0.0191
      4 C         143.3647  141.0040  162.9790 C.3     1  UNL1        0.0722
      5 N         143.5226  140.9441  164.4695 N.3     1  UNL1       -0.2724
      6 C         143.2499  142.1617  165.3020 C.3     1  UNL1        0.0722
      7 C         142.8192  143.4391  164.6441 C.3     1  UNL1        0.0191
      8 C         143.9533  139.6667  165.1273 C.3     1  UNL1        0.0768
      9 C         142.9270  138.7359  165.7020 C.3     1  UNL1        0.0437
     10 C         141.9861  139.2208  166.7647 C.ar    1  UNL1       -0.0208
     11 C         140.5562  139.5172  166.4221 C.ar    1  UNL1       -0.0042
     12 C         139.6153  140.0021  167.4848 C.ar    1  UNL1        0.0008
     13 C         140.1043  140.1907  168.8903 C.ar    1  UNL1        0.0140
     14 C         141.5343  139.8943  169.2329 C.ar    1  UNL1        0.0008
     15 C         142.4752  139.4094  168.1702 C.ar    1  UNL1       -0.0042
     16 C         139.1634  140.6757  169.9531 C.2     1  UNL1        0.0729
     17 O         137.9935  139.8303  170.3617 O.co2   1  UNL1       -0.5446
     18 O         139.3923  142.0059  170.6073 O.co2   1  UNL1       -0.5446
     19 C         140.9005  145.1442  160.2945 C.2     1  UNL1        0.2654
     20 O         139.6378  145.3149  161.0859 O.2     1  UNL1       -0.2684
     21 N         142.1969  144.8749  160.9994 N.am    1  UNL1       -0.2996
     22 H         143.0257  144.7629  160.4799 H       1  UNL1        0.1498
     23 N         140.2405  145.8746  156.5400 N.ar    1  UNL1       -0.2527
     24 N         139.9173  146.0775  157.9906 N.ar    1  UNL1       -0.1647
     25 C         140.8668  145.2429  158.7981 C.ar    1  UNL1        0.1554
     26 C         141.7768  144.5243  157.8465 C.ar    1  UNL1        0.0411
     27 C         142.9078  143.5649  158.0705 C.ar    1  UNL1        0.0032
     28 C         143.6518  142.9959  156.8988 C.ar    1  UNL1        0.0001
     29 C         143.2647  143.3863  155.5032 C.ar    1  UNL1        0.0015
     30 C         142.1337  144.3458  155.2792 C.ar    1  UNL1        0.0188
     31 C         141.3897  144.9147  156.4509 C.ar    1  UNL1        0.0794
     32 C         138.1534  146.0799  155.0063 C.3     1  UNL1        0.0263
     33 C         139.5379  146.5186  155.3817 C.3     1  UNL1        0.1053
     34 C         140.2195  147.6013  154.5988 C.3     1  UNL1        0.0263
@<TRIPOS>UNITY_ATOM_ATTR
17 1
charge -1
@<TRIPOS>BOND
     1    32    33    1
     2    33    34    1
     3    33    23    1
     4    23    24   ar
     5    24    25   ar
     6    25    19    1
     7    19    20    2
     8    19    21   am
     9    21     1    1
    10     1     2    1
    11     2     3    1
    12     3     4    1
    13     4     5    1
    14     5     8    1
    15     8     9    1
    16     9    10    1
    17    10    11   ar
    18    11    12   ar
    19    12    13   ar
    20    13    16    1
    21    16    17   ar
    22    16    18   ar
    23    13    14   ar
    24    14    15   ar
    25     5     6    1
    26     6     7    1
    27    25    26   ar
    28    26    27   ar
    29    27    28   ar
    30    28    29   ar
    31    29    30   ar
    32    30    31   ar
    33    31    23   ar
    34     7     2    1
    35    31    26   ar
    36    15    10   ar
    37    21    22    1
@<TRIPOS>MOLECULE
*****
 34 37 0 0 0
SMALL
GASTEIGER

@<TRIPOS>ATOM
      1 C         143.0311  137.7265  161.3794 C.3     1  UNL1        0.0898
      2 C         141.9617  138.1265  162.3521 C.3     1  UNL1        0.0224
      3 C         140.5164  138.0066  161.9691 C.3     1  UNL1        0.0191
      4 C         139.4470  138.4067  162.9419 C.3     1  UNL1        0.0722
      5 N         139.8229  138.9268  164.2977 N.3     1  UNL1       -0.2724
      6 C         141.2682  139.0468  164.6808 C.3     1  UNL1        0.0722
      7 C         142.3376  138.6467  163.7079 C.3     1  UNL1        0.0191
      8 C         138.7534  139.3269  165.2704 C.3     1  UNL1        0.0768
      9 C         138.9732  139.1459  166.7432 C.3     1  UNL1        0.0437
     10 C         139.4542  140.2966  167.5766 C.ar    1  UNL1       -0.0208
     11 C         139.2806  140.2678  169.0663 C.ar    1  UNL1       -0.0042
     12 C         139.7616  141.4183  169.8998 C.ar    1  UNL1        0.0008
     13 C         140.4162  142.5977  169.2437 C.ar    1  UNL1        0.0140
     14 C         140.5898  142.6265  167.7540 C.ar    1  UNL1        0.0008
     15 C         140.1088  141.4760  166.9205 C.ar    1  UNL1       -0.0042
     16 C         140.8972  143.7484  170.0772 C.2     1  UNL1        0.0729
     17 O         140.0023  144.9287  170.3140 O.co2   1  UNL1       -0.5446
     18 O         142.2731  143.7188  170.6738 O.co2   1  UNL1       -0.5446
     19 C         142.9673  137.7784  158.7826 C.2     1  UNL1        0.2654
     20 O         143.6508  139.1135  158.7926 O.2     1  UNL1       -0.2684
     21 N         142.6574  137.0848  160.0761 N.am    1  UNL1       -0.2996
     22 H         142.2088  136.2085  160.0696 H       1  UNL1        0.1498
     23 N         141.7197  136.7966  155.2407 N.ar    1  UNL1       -0.2527
     24 N         141.8903  137.8069  156.3363 N.ar    1  UNL1       -0.1647
     25 C         142.5936  137.1368  157.4792 C.ar    1  UNL1        0.1554
     26 C         142.8577  135.7124  157.0901 C.ar    1  UNL1        0.0411
     27 C         143.5202  134.5798  157.8167 C.ar    1  UNL1        0.0032
     28 C         143.6426  133.2368  157.1598 C.ar    1  UNL1        0.0001
     29 C         143.1025  133.0266  155.7764 C.ar    1  UNL1        0.0015
     30 C         142.4400  134.1593  155.0497 C.ar    1  UNL1        0.0188
     31 C         142.3176  135.5022  155.7066 C.ar    1  UNL1        0.0794
     32 C         139.5897  136.8253  153.7533 C.3     1  UNL1        0.0263
     33 C         141.0660  137.0384  153.9125 C.3     1  UNL1        0.1053
     34 C         141.8884  137.4931  152.7435 C.3     1  UNL1        0.0263
@<TRIPOS>UNITY_ATOM_ATTR
17 1
charge -1
@<TRIPOS>BOND
     1    32    33    1
     2    33    34    1
     3    33    23    1
     4    23    24   ar
     5    24    25   ar
     6    25    19    1
     7    19    20    2
     8    19    21   am
     9    21     1    1
    10     1     2    1
    11     2     3    1
    12     3     4    1
    13     4     5    1
    14     5     8    1
    15     8     9    1
    16     9    10    1
    17    10    11   ar
    18    11    12   ar
    19    12    13   ar
    20    13    16    1
    21    16    17   ar
    22    16    18   ar
    23    13    14   ar
    24    14    15   ar
    25     5     6    1
    26     6     7    1
    27    25    26   ar
    28    26    27   ar
    29    27    28   ar
    30    28    29   ar
    31    29    30   ar
    32    30    31   ar
    33    31    23   ar
    34     7     2    1
    35    31    26   ar
    36    15    10   ar
    37    21    22    1
@<TRIPOS>MOLECULE
*****
 34 37 0 0 0
SMALL
GASTEIGER

@<TRIPOS>ATOM
      1 C         144.9136  140.2407  163.7341 C.3     1  UNL1        0.0898
      2 C         144.5791  140.5706  162.3096 C.3     1  UNL1        0.0224
      3 C         144.0714  139.4992  161.3908 C.3     1  UNL1        0.0191
      4 C         143.7370  139.8292  159.9663 C.3     1  UNL1        0.0722
      5 N         143.9102  141.2307  159.4605 N.3     1  UNL1       -0.2724
      6 C         144.4179  142.3022  160.3793 C.3     1  UNL1        0.0722
      7 C         144.7524  141.9721  161.8039 C.3     1  UNL1        0.0191
      8 C         143.5757  141.5607  158.0361 C.3     1  UNL1        0.0768
      9 C         142.1537  141.8310  157.6428 C.3     1  UNL1        0.0437
     10 C         141.1186  142.0835  158.6986 C.ar    1  UNL1       -0.0208
     11 C         140.9647  143.4555  159.2851 C.ar    1  UNL1       -0.0042
     12 C         139.9296  143.7081  160.3409 C.ar    1  UNL1        0.0008
     13 C         139.0484  142.5886  160.8103 C.ar    1  UNL1        0.0140
     14 C         139.2023  141.2166  160.2238 C.ar    1  UNL1        0.0008
     15 C         140.2374  140.9640  159.1680 C.ar    1  UNL1       -0.0042
     16 C         138.0133  142.8412  161.8662 C.2     1  UNL1        0.0729
     17 O         137.8047  144.2292  162.3952 O.co2   1  UNL1       -0.5446
     18 O         137.1868  141.7057  162.3930 O.co2   1  UNL1       -0.5446
     19 C         143.1360  141.1441  165.3997 C.2     1  UNL1        0.2654
     20 O         143.5565  142.5493  165.0862 O.2     1  UNL1       -0.2684
     21 N         143.8146  139.9897  164.7237 N.am    1  UNL1       -0.2996
     22 H         143.5387  139.0673  164.9294 H       1  UNL1        0.1498
     23 N         140.7159  140.9096  168.4252 N.ar    1  UNL1       -0.2527
     24 N         141.9898  141.3974  167.8012 N.ar    1  UNL1       -0.1647
     25 C         142.0370  140.8931  166.3893 C.ar    1  UNL1        0.1554
     26 C         140.7924  140.0937  166.1407 C.ar    1  UNL1        0.0411
     27 C         140.2970  139.3578  164.9311 C.ar    1  UNL1        0.0032
     28 C         138.9852  138.6322  164.9798 C.ar    1  UNL1        0.0001
     29 C         138.1687  138.6424  166.2381 C.ar    1  UNL1        0.0015
     30 C         138.6640  139.3783  167.4476 C.ar    1  UNL1        0.0188
     31 C         139.9759  140.1039  167.3989 C.ar    1  UNL1        0.0794
     32 C         139.8967  142.5748  170.2436 C.3     1  UNL1        0.0263
     33 C         140.2618  141.1801  169.8290 C.3     1  UNL1        0.1053
     34 C         140.1727  140.0562  170.8182 C.3     1  UNL1        0.0263
@<TRIPOS>UNITY_ATOM_ATTR
17 1
charge -1
@<TRIPOS>BOND
     1    32    33    1
     2    33    34    1
     3    33    23    1
     4    23    24   ar
     5    24    25   ar
     6    25    19    1
     7    19    20    2
     8    19    21   am
     9    21     1    1
    10     1     2    1
    11     2     3    1
    12     3     4    1
    13     4     5    1
    14     5     8    1
    15     8     9    1
    16     9    10    1
    17    10    11   ar
    18    11    12   ar
    19    12    13   ar
    20    13    16    1
    21    16    17   ar
    22    16    18   ar
    23    13    14   ar
    24    14    15   ar
    25     5     6    1
    26     6     7    1
    27    25    26   ar
    28    26    27   ar
    29    27    28   ar
    30    28    29   ar
    31    29    30   ar
    32    30    31   ar
    33    31    23   ar
    34     7     2    1
    35    31    26   ar
    36    15    10   ar
    37    21    22    1
@<TRIPOS>MOLECULE
*****
 34 37 0 0 0
SMALL
GASTEIGER

@<TRIPOS>ATOM
      1 C         137.0405  141.8225  155.7571 C.3     1  UNL1        0.0898
      2 C         137.7806  141.3968  156.9903 C.3     1  UNL1        0.0224
      3 C         138.5751  140.1245  156.9866 C.3     1  UNL1        0.0191
      4 C         139.3152  139.6988  158.2199 C.3     1  UNL1        0.0722
      5 N         139.2608  140.5454  159.4570 N.3     1  UNL1       -0.2724
      6 C         138.4663  141.8177  159.4607 C.3     1  UNL1        0.0722
      7 C         137.7262  142.2434  158.2273 C.3     1  UNL1        0.0191
      8 C         140.0009  140.1197  160.6903 C.3     1  UNL1        0.0768
      9 C         139.6732  138.8120  161.3478 C.3     1  UNL1        0.0437
     10 C         139.2552  138.7807  162.7880 C.ar    1  UNL1       -0.0208
     11 C         139.5114  137.5570  163.6169 C.ar    1  UNL1       -0.0042
     12 C         139.0935  137.5256  165.0571 C.ar    1  UNL1        0.0008
     13 C         138.4193  138.7180  165.6685 C.ar    1  UNL1        0.0140
     14 C         138.1631  139.9416  164.8397 C.ar    1  UNL1        0.0008
     15 C         138.5811  139.9730  163.3994 C.ar    1  UNL1       -0.0042
     16 C         138.0013  138.6866  167.1088 C.2     1  UNL1        0.0729
     17 O         138.7579  139.4873  168.1269 O.co2   1  UNL1       -0.5446
     18 O         136.8268  137.8547  167.5310 O.co2   1  UNL1       -0.5446
     19 C         134.6919  140.7163  155.6528 C.2     1  UNL1        0.2654
     20 O         135.3333  139.3696  155.4953 O.2     1  UNL1       -0.2684
     21 N         135.5455  141.9428  155.7837 N.am    1  UNL1       -0.2996
     22 H         135.1246  142.8268  155.8870 H       1  UNL1        0.1498
     23 N         130.9307  141.5614  155.2006 N.ar    1  UNL1       -0.2527
     24 N         132.3736  141.7804  154.8540 N.ar    1  UNL1       -0.1647
     25 C         133.1970  140.8366  155.6794 C.ar    1  UNL1        0.1554
     26 C         132.2630  140.0342  156.5360 C.ar    1  UNL1        0.0411
     27 C         132.5069  138.9536  157.5473 C.ar    1  UNL1        0.0032
     28 C         131.3503  138.3209  158.2626 C.ar    1  UNL1        0.0001
     29 C         129.9496  138.7688  157.9667 C.ar    1  UNL1        0.0015
     30 C         129.7057  139.8494  156.9554 C.ar    1  UNL1        0.0188
     31 C         130.8623  140.4821  156.2401 C.ar    1  UNL1        0.0794
     32 C         128.9450  141.6530  153.5275 C.3     1  UNL1        0.0263
     33 C         129.7614  142.2930  154.6111 C.3     1  UNL1        0.1053
     34 C         129.4085  143.6646  155.1051 C.3     1  UNL1        0.0263
@<TRIPOS>UNITY_ATOM_ATTR
17 1
charge -1
@<TRIPOS>BOND
     1    32    33    1
     2    33    34    1
     3    33    23    1
     4    23    24   ar
     5    24    25   ar
     6    25    19    1
     7    19    20    2
     8    19    21   am
     9    21     1    1
    10     1     2    1
    11     2     3    1
    12     3     4    1
    13     4     5    1
    14     5     8    1
    15     8     9    1
    16     9    10    1
    17    10    11   ar
    18    11    12   ar
    19    12    13   ar
    20    13    16    1
    21    16    17   ar
    22    16    18   ar
    23    13    14   ar
    24    14    15   ar
    25     5     6    1
    26     6     7    1
    27    25    26   ar
    28    26    27   ar
    29    27    28   ar
    30    28    29   ar
    31    29    30   ar
    32    30    31   ar
    33    31    23   ar
    34     7     2    1
    35    31    26   ar
    36    15    10   ar
    37    21    22    1
@<TRIPOS>MOLECULE
*****
 34 37 0 0 0
SMALL
GASTEIGER

@<TRIPOS>ATOM
      1 C         140.6963  139.4784  158.6279 C.3     1  UNL1        0.0898
      2 C         140.2252  139.5721  160.0489 C.3     1  UNL1        0.0224
      3 C         140.3126  140.8769  160.7836 C.3     1  UNL1        0.0191
      4 C         139.8415  140.9704  162.2046 C.3     1  UNL1        0.0722
      5 N         139.2830  139.7592  162.8910 N.3     1  UNL1       -0.2724
      6 C         139.1956  138.4544  162.1563 C.3     1  UNL1        0.0722
      7 C         139.6668  138.3608  160.7352 C.3     1  UNL1        0.0191
      8 C         138.8119  139.8528  164.3120 C.3     1  UNL1        0.0768
      9 C         139.7317  139.4712  165.4338 C.3     1  UNL1        0.0437
     10 C         139.8967  140.3848  166.6120 C.ar    1  UNL1       -0.0208
     11 C         139.6074  139.8836  167.9959 C.ar    1  UNL1       -0.0042
     12 C         139.7724  140.7970  169.1742 C.ar    1  UNL1        0.0008
     13 C         140.2267  142.2117  168.9685 C.ar    1  UNL1        0.0140
     14 C         140.5160  142.7129  167.5846 C.ar    1  UNL1        0.0008
     15 C         140.3510  141.7995  166.4064 C.ar    1  UNL1       -0.0042
     16 C         140.3917  143.1253  170.1468 C.2     1  UNL1        0.0729
     17 O         141.6891  143.8472  170.3603 O.co2   1  UNL1       -0.5446
     18 O         139.2593  143.3169  171.1116 O.co2   1  UNL1       -0.5446
     19 C         142.3822  137.6605  157.8513 C.2     1  UNL1        0.2654
     20 O         143.5221  138.5260  158.3001 O.2     1  UNL1       -0.2684
     21 N         140.9692  138.1368  158.0152 N.am    1  UNL1       -0.2996
     22 H         140.2210  137.5688  157.7206 H       1  UNL1        0.1498
     23 N         143.3377  134.0074  156.9533 N.ar    1  UNL1       -0.2527
     24 N         143.2405  135.1307  157.9425 N.ar    1  UNL1       -0.1647
     25 C         142.6551  136.3189  157.2385 C.ar    1  UNL1        0.1554
     26 C         142.3906  135.9298  155.8142 C.ar    1  UNL1        0.0411
     27 C         141.8201  136.6919  154.6550 C.ar    1  UNL1        0.0032
     28 C         141.6714  136.0253  153.3195 C.ar    1  UNL1        0.0001
     29 C         142.0933  134.5967  153.1433 C.ar    1  UNL1        0.0015
     30 C         142.6638  133.8346  154.3024 C.ar    1  UNL1        0.0188
     31 C         142.8125  134.5012  155.6379 C.ar    1  UNL1        0.0794
     32 C         145.1790  132.4614  157.9382 C.3     1  UNL1        0.0263
     33 C         143.8673  132.6316  157.2307 C.3     1  UNL1        0.1053
     34 C         143.0852  131.4261  156.8006 C.3     1  UNL1        0.0263
@<TRIPOS>UNITY_ATOM_ATTR
17 1
charge -1
@<TRIPOS>BOND
     1    32    33    1
     2    33    34    1
     3    33    23    1
     4    23    24   ar
     5    24    25   ar
     6    25    19    1
     7    19    20    2
     8    19    21   am
     9    21     1    1
    10     1     2    1
    11     2     3    1
    12     3     4    1
    13     4     5    1
    14     5     8    1
    15     8     9    1
    16     9    10    1
    17    10    11   ar
    18    11    12   ar
    19    12    13   ar
    20    13    16    1
    21    16    17   ar
    22    16    18   ar
    23    13    14   ar
    24    14    15   ar
    25     5     6    1
    26     6     7    1
    27    25    26   ar
    28    26    27   ar
    29    27    28   ar
    30    28    29   ar
    31    29    30   ar
    32    30    31   ar
    33    31    23   ar
    34     7     2    1
    35    31    26   ar
    36    15    10   ar
    37    21    22    1
@<TRIPOS>MOLECULE
*****
 34 37 0 0 0
SMALL
GASTEIGER

@<TRIPOS>ATOM
      1 C         142.8766  144.6411  163.5238 C.3     1  UNL1        0.0898
      2 C         143.2292  144.0019  162.2134 C.3     1  UNL1        0.0224
      3 C         144.5217  143.2548  162.0671 C.3     1  UNL1        0.0191
      4 C         144.8743  142.6156  160.7567 C.3     1  UNL1        0.0722
      5 N         143.9344  142.7235  159.5926 N.3     1  UNL1       -0.2724
      6 C         142.6420  143.4706  159.7389 C.3     1  UNL1        0.0722
      7 C         142.2894  144.1098  161.0494 C.3     1  UNL1        0.0191
      8 C         144.2871  142.0843  158.2823 C.3     1  UNL1        0.0768
      9 C         143.7112  140.7473  157.9209 C.3     1  UNL1        0.0437
     10 C         142.8323  140.0210  158.8956 C.ar    1  UNL1       -0.0208
     11 C         141.3402  140.1184  158.7769 C.ar    1  UNL1       -0.0042
     12 C         140.4613  139.3922  159.7516 C.ar    1  UNL1        0.0008
     13 C         141.0745  138.5685  160.8450 C.ar    1  UNL1        0.0140
     14 C         142.5666  138.4711  160.9636 C.ar    1  UNL1        0.0008
     15 C         143.4456  139.1973  159.9890 C.ar    1  UNL1       -0.0042
     16 C         140.1956  137.8422  161.8197 C.2     1  UNL1        0.0729
     17 O         138.7035  137.9425  161.7033 O.co2   1  UNL1       -0.5446
     18 O         140.8088  137.0155  162.9109 O.co2   1  UNL1       -0.5446
     19 C         141.0206  143.3388  164.7926 C.2     1  UNL1        0.2654
     20 O         140.0241  143.7389  163.7453 O.2     1  UNL1       -0.2684
     21 N         142.4469  143.7899  164.6818 N.am    1  UNL1       -0.2996
     22 H         143.1010  143.5274  165.3691 H       1  UNL1        0.1498
     23 N         140.2665  141.6522  168.2060 N.ar    1  UNL1       -0.2527
     24 N         140.8832  142.7548  167.3974 N.ar    1  UNL1       -0.1647
     25 C         140.5909  142.4877  165.9506 C.ar    1  UNL1        0.1554
     26 C         139.7936  141.2200  165.8650 C.ar    1  UNL1        0.0411
     27 C         139.2243  140.4692  164.6979 C.ar    1  UNL1        0.0032
     28 C         138.4545  139.2020  164.9248 C.ar    1  UNL1        0.0001
     29 C         138.2539  138.6856  166.3188 C.ar    1  UNL1        0.0015
     30 C         138.8232  139.4364  167.4859 C.ar    1  UNL1        0.0188
     31 C         139.5931  140.7036  167.2590 C.ar    1  UNL1        0.0794
     32 C         140.9003  140.2903  170.3259 C.3     1  UNL1        0.0263
     33 C         140.3146  141.5211  169.6995 C.3     1  UNL1        0.1053
     34 C         139.7773  142.6206  170.5667 C.3     1  UNL1        0.0263
@<TRIPOS>UNITY_ATOM_ATTR
17 1
charge -1
@<TRIPOS>BOND
     1    32    33    1
     2    33    34    1
     3    33    23    1
     4    23    24   ar
     5    24    25   ar
     6    25    19    1
     7    19    20    2
     8    19    21   am
     9    21     1    1
    10     1     2    1
    11     2     3    1
    12     3     4    1
    13     4     5    1
    14     5     8    1
    15     8     9    1
    16     9    10    1
    17    10    11   ar
    18    11    12   ar
    19    12    13   ar
    20    13    16    1
    21    16    17   ar
    22    16    18   ar
    23    13    14   ar
    24    14    15   ar
    25     5     6    1
    26     6     7    1
    27    25    26   ar
    28    26    27   ar
    29    27    28   ar
    30    28    29   ar
    31    29    30   ar
    32    30    31   ar
    33    31    23   ar
    34     7     2    1
    35    31    26   ar
    36    15    10   ar
    37    21    22    1
@<TRIPOS>MOLECULE
*****
 34 37 0 0 0
SMALL
GASTEIGER

@<TRIPOS>ATOM
      1 C         142.9683  138.7412  158.0573 C.3     1  UNL1        0.0898
      2 C         142.9908  139.0026  159.5341 C.3     1  UNL1        0.0224
      3 C         142.1668  138.1560  160.4584 C.3     1  UNL1        0.0191
      4 C         142.1895  138.4174  161.9352 C.3     1  UNL1        0.0722
      5 N         143.0360  139.5255  162.4879 N.3     1  UNL1       -0.2724
      6 C         143.8600  140.3722  161.5637 C.3     1  UNL1        0.0722
      7 C         143.8374  140.1107  160.0867 C.3     1  UNL1        0.0191
      8 C         143.0586  139.7869  163.9648 C.3     1  UNL1        0.0768
      9 C         142.5958  138.7280  164.9211 C.3     1  UNL1        0.0437
     10 C         142.0215  139.1176  166.2509 C.ar    1  UNL1       -0.0208
     11 C         140.5864  139.5420  166.3527 C.ar    1  UNL1       -0.0042
     12 C         140.0120  139.9316  167.6824 C.ar    1  UNL1        0.0008
     13 C         140.8728  139.8967  168.9104 C.ar    1  UNL1        0.0140
     14 C         142.3079  139.4723  168.8086 C.ar    1  UNL1        0.0008
     15 C         142.8823  139.0827  167.4788 C.ar    1  UNL1       -0.0042
     16 C         140.2984  140.2863  170.2403 C.2     1  UNL1        0.0729
     17 O         141.1420  141.0302  171.2327 O.co2   1  UNL1       -0.5446
     18 O         138.8805  139.9319  170.5777 O.co2   1  UNL1       -0.5446
     19 C         143.5460  136.8752  156.3442 C.2     1  UNL1        0.2654
     20 O         144.5002  137.8043  155.6541 O.2     1  UNL1       -0.2684
     21 N         142.7800  137.3437  157.5458 N.am    1  UNL1       -0.2996
     22 H         142.1537  136.7340  157.9988 H       1  UNL1        0.1498
     23 N         143.4154  133.0581  155.6534 N.ar    1  UNL1       -0.2527
     24 N         143.8092  134.2207  156.5154 N.ar    1  UNL1       -0.1647
     25 C         143.3577  135.4777  155.8327 C.ar    1  UNL1        0.1554
     26 C         142.6848  135.0920  154.5488 C.ar    1  UNL1        0.0411
     27 C         142.0442  135.9092  153.4664 C.ar    1  UNL1        0.0032
     28 C         141.4393  135.2310  152.2731 C.ar    1  UNL1        0.0001
     29 C         141.4749  133.7355  152.1622 C.ar    1  UNL1        0.0015
     30 C         142.1155  132.9182  153.2447 C.ar    1  UNL1        0.0188
     31 C         142.7204  133.5965  154.4380 C.ar    1  UNL1        0.0794
     32 C         145.0690  131.1367  156.2231 C.3     1  UNL1        0.0263
     33 C         143.6715  131.6110  155.9539 C.3     1  UNL1        0.1053
     34 C         142.5303  130.6381  155.9854 C.3     1  UNL1        0.0263
@<TRIPOS>UNITY_ATOM_ATTR
17 1
charge -1
@<TRIPOS>BOND
     1    32    33    1
     2    33    34    1
     3    33    23    1
     4    23    24   ar
     5    24    25   ar
     6    25    19    1
     7    19    20    2
     8    19    21   am
     9    21     1    1
    10     1     2    1
    11     2     3    1
    12     3     4    1
    13     4     5    1
    14     5     8    1
    15     8     9    1
    16     9    10    1
    17    10    11   ar
    18    11    12   ar
    19    12    13   ar
    20    13    16    1
    21    16    17   ar
    22    16    18   ar
    23    13    14   ar
    24    14    15   ar
    25     5     6    1
    26     6     7    1
    27    25    26   ar
    28    26    27   ar
    29    27    28   ar
    30    28    29   ar
    31    29    30   ar
    32    30    31   ar
    33    31    23   ar
    34     7     2    1
    35    31    26   ar
    36    15    10   ar
    37    21    22    1
@<TRIPOS>MOLECULE
*****
 34 37 0 0 0
SMALL
GASTEIGER

@<TRIPOS>ATOM
      1 C         140.1336  144.7396  162.3766 C.3     1  UNL1        0.0898
      2 C         140.2791  143.3761  162.9846 C.3     1  UNL1        0.0224
      3 C         139.1173  142.7417  163.6902 C.3     1  UNL1        0.0191
      4 C         139.2628  141.3782  164.2981 C.3     1  UNL1        0.0722
      5 N         140.5700  140.6490  164.2005 N.3     1  UNL1       -0.2724
      6 C         141.7318  141.2834  163.4948 C.3     1  UNL1        0.0722
      7 C         141.5863  142.6470  162.8869 C.3     1  UNL1        0.0191
      8 C         140.7155  139.2855  164.8084 C.3     1  UNL1        0.0768
      9 C         141.4151  139.1221  166.1251 C.3     1  UNL1        0.0437
     10 C         141.1143  140.0606  167.2558 C.ar    1  UNL1       -0.0208
     11 C         142.0239  141.2216  167.5291 C.ar    1  UNL1       -0.0042
     12 C         141.7232  142.1603  168.6597 C.ar    1  UNL1        0.0008
     13 C         140.5127  141.9378  169.5172 C.ar    1  UNL1        0.0140
     14 C         139.6030  140.7769  169.2440 C.ar    1  UNL1        0.0008
     15 C         139.9038  139.8382  168.1133 C.ar    1  UNL1       -0.0042
     16 C         140.2118  142.8765  170.6480 C.2     1  UNL1        0.0729
     17 O         140.2572  142.3837  172.0640 O.co2   1  UNL1       -0.5446
     18 O         139.8657  144.3078  170.3627 O.co2   1  UNL1       -0.5446
     19 C         140.7167  144.8763  159.8484 C.2     1  UNL1        0.2654
     20 O         142.1729  144.7296  160.1764 O.2     1  UNL1       -0.2684
     21 N         139.6970  144.8813  160.9486 N.am    1  UNL1       -0.2996
     22 H         138.7411  144.9776  160.7334 H       1  UNL1        0.1498
     23 N         140.0105  145.8659  156.1623 N.ar    1  UNL1       -0.2527
     24 N         140.6746  146.1205  157.4830 N.ar    1  UNL1       -0.1647
     25 C         140.2800  145.0180  158.4204 C.ar    1  UNL1        0.1554
     26 C         139.3721  144.0820  157.6791 C.ar    1  UNL1        0.0411
     27 C         138.6755  142.8202  158.0945 C.ar    1  UNL1        0.0032
     28 C         137.8123  142.0825  157.1144 C.ar    1  UNL1        0.0001
     29 C         137.6457  142.6066  155.7189 C.ar    1  UNL1        0.0015
     30 C         138.3423  143.8683  155.3034 C.ar    1  UNL1        0.0188
     31 C         139.2055  144.6060  156.2835 C.ar    1  UNL1        0.0794
     32 C         139.3010  147.9641  154.8041 C.3     1  UNL1        0.0263
     33 C         140.1304  146.7210  154.9358 C.3     1  UNL1        0.1053
     34 C         141.0794  146.3333  153.8409 C.3     1  UNL1        0.0263
@<TRIPOS>UNITY_ATOM_ATTR
17 1
charge -1
@<TRIPOS>BOND
     1    32    33    1
     2    33    34    1
     3    33    23    1
     4    23    24   ar
     5    24    25   ar
     6    25    19    1
     7    19    20    2
     8    19    21   am
     9    21     1    1
    10     1     2    1
    11     2     3    1
    12     3     4    1
    13     4     5    1
    14     5     8    1
    15     8     9    1
    16     9    10    1
    17    10    11   ar
    18    11    12   ar
    19    12    13   ar
    20    13    16    1
    21    16    17   ar
    22    16    18   ar
    23    13    14   ar
    24    14    15   ar
    25     5     6    1
    26     6     7    1
    27    25    26   ar
    28    26    27   ar
    29    27    28   ar
    30    28    29   ar
    31    29    30   ar
    32    30    31   ar
    33    31    23   ar
    34     7     2    1
    35    31    26   ar
    36    15    10   ar
    37    21    22    1
