@<TRIPOS>MOLECULE
*****
 24 26 0 0 0
SMALL
GASTEIGER

@<TRIPOS>ATOM
      1 C         136.9880  137.9078  167.5588 C.3     1  UNL1        0.0320
      2 C         138.0721  138.9125  167.3032 C.3     1  UNL1        0.1155
      3 C         138.3966  139.3246  165.8979 C.3     1  UNL1        0.0327
      4 C         139.4807  140.3292  165.6423 C.3     1  UNL1        0.0406
      5 C         139.8052  140.7414  164.2370 C.3     1  UNL1        0.0672
      6 S         140.8893  141.7460  163.9814 S.3     1  UNL1       -0.0807
      7 C         141.6489  142.3386  165.1312 C.2     1  UNL1        0.1482
      8 N         142.7331  143.3432  164.8756 N.pl3   1  UNL1       -0.3380
      9 N         141.3244  141.9265  166.5364 N.2     1  UNL1       -0.2484
     10 C         140.2403  140.9218  166.7920 C.3     1  UNL1        0.1330
     11 C         139.9158  140.5097  168.1973 C.3     1  UNL1        0.1685
     12 O         138.8317  139.5050  168.4529 O.3     1  UNL1       -0.3539
     13 H         142.9460  143.6137  163.9532 H       1  UNL1        0.1442
     14 H         143.2316  143.7321  165.6302 H       1  UNL1        0.1442
     15 C         141.0000  141.5143  167.9417 C.ar    1  UNL1        0.0041
     16 C         140.4798  142.7402  168.6321 C.ar    1  UNL1       -0.0025
     17 C         141.2395  143.3327  169.7818 C.ar    1  UNL1       -0.0003
     18 C         142.5193  142.6994  170.2411 C.ar    1  UNL1       -0.0001
     19 C         143.0395  141.4736  169.5507 C.ar    1  UNL1        0.0036
     20 C         142.2798  140.8810  168.4010 C.ar    1  UNL1        0.0693
     21 C         142.8000  139.6552  167.7106 C.3     1  UNL1        0.4183
     22 F         143.3202  138.4293  167.0202 F       1  UNL1       -0.1659
     23 F         142.5348  138.8468  168.9460 F       1  UNL1       -0.1659
     24 F         143.0542  139.7285  166.9586 F       1  UNL1       -0.1659
@<TRIPOS>BOND
     1     2     1    1
     2     2     3    1
     3     4     3    1
     4     4     5    1
     5     5     6    1
     6     6     7    1
     7     7     8    1
     8     7     9    2
     9     9    10    1
    10    10    15    1
    11    15    16   ar
    12    16    17   ar
    13    17    18   ar
    14    18    19   ar
    15    19    20   ar
    16    20    21    1
    17    21    22    1
    18    21    23    1
    19    21    24    1
    20    10    11    1
    21    11    12    1
    22    12     2    1
    23    10     4    1
    24    20    15   ar
    25     8    13    1
    26     8    14    1
@<TRIPOS>MOLECULE
*****
 24 26 0 0 0
SMALL
GASTEIGER

@<TRIPOS>ATOM
      1 C         141.4503  142.6432  170.2408 C.3     1  UNL1        0.0320
      2 C         141.5883  142.5304  168.7514 C.3     1  UNL1        0.1155
      3 C         140.4968  143.0381  167.8565 C.3     1  UNL1        0.0327
      4 C         140.6347  142.9253  166.3671 C.3     1  UNL1        0.0406
      5 C         139.5432  143.4331  165.4722 C.3     1  UNL1        0.0672
      6 S         139.6811  143.3203  163.9829 S.3     1  UNL1       -0.0807
      7 C         140.9106  142.6997  163.3884 C.2     1  UNL1        0.1482
      8 N         141.0485  142.5869  161.8990 N.pl3   1  UNL1       -0.3380
      9 N         142.0020  142.1920  164.2833 N.2     1  UNL1       -0.2484
     10 C         141.8641  142.3048  165.7726 C.3     1  UNL1        0.1330
     11 C         142.9556  141.7970  166.6675 C.3     1  UNL1        0.1685
     12 O         142.8176  141.9098  168.1569 O.3     1  UNL1       -0.3539
     13 H         140.3321  142.9202  161.3117 H       1  UNL1        0.1442
     14 H         141.8554  142.1796  161.5088 H       1  UNL1        0.1442
     15 C         143.0935  141.6842  165.1781 C.ar    1  UNL1        0.0041
     16 C         143.2293  140.1913  165.1249 C.ar    1  UNL1       -0.0025
     17 C         144.4588  139.5708  164.5304 C.ar    1  UNL1       -0.0003
     18 C         145.5524  140.4432  163.9891 C.ar    1  UNL1       -0.0001
     19 C         145.4166  141.9360  164.0423 C.ar    1  UNL1        0.0036
     20 C         144.1872  142.5566  164.6368 C.ar    1  UNL1        0.0693
     21 C         144.0514  144.0495  164.6900 C.3     1  UNL1        0.4183
     22 F         143.9156  145.5424  164.7433 F       1  UNL1       -0.1659
     23 F         144.9399  144.0872  165.8980 F       1  UNL1       -0.1659
     24 F         143.6006  144.4043  164.1366 F       1  UNL1       -0.1659
@<TRIPOS>BOND
     1     2     1    1
     2     2     3    1
     3     4     3    1
     4     4     5    1
     5     5     6    1
     6     6     7    1
     7     7     8    1
     8     7     9    2
     9     9    10    1
    10    10    15    1
    11    15    16   ar
    12    16    17   ar
    13    17    18   ar
    14    18    19   ar
    15    19    20   ar
    16    20    21    1
    17    21    22    1
    18    21    23    1
    19    21    24    1
    20    10    11    1
    21    11    12    1
    22    12     2    1
    23    10     4    1
    24    20    15   ar
    25     8    13    1
    26     8    14    1
@<TRIPOS>MOLECULE
*****
 24 26 0 0 0
SMALL
GASTEIGER

@<TRIPOS>ATOM
      1 C         141.0308  140.5859  171.0401 C.3     1  UNL1        0.0320
      2 C         141.0280  140.5096  169.5420 C.3     1  UNL1        0.1155
      3 C         142.0782  139.7097  168.8298 C.3     1  UNL1        0.0327
      4 C         142.0754  139.6335  167.3317 C.3     1  UNL1        0.0406
      5 C         143.1256  138.8335  166.6195 C.3     1  UNL1        0.0672
      6 S         143.1228  138.7573  165.1215 S.3     1  UNL1       -0.0807
      7 C         142.0697  139.4809  164.3356 C.2     1  UNL1        0.1482
      8 N         142.0669  139.4046  162.8376 N.pl3   1  UNL1       -0.3380
      9 N         141.0196  140.2808  165.0478 N.2     1  UNL1       -0.2484
     10 C         141.0224  140.3570  166.5459 C.3     1  UNL1        0.1330
     11 C         139.9722  141.1569  167.2581 C.3     1  UNL1        0.1685
     12 O         139.9750  141.2332  168.7562 O.3     1  UNL1       -0.3539
     13 H         142.7562  138.8796  162.3701 H       1  UNL1        0.1442
     14 H         141.3758  139.8795  162.3218 H       1  UNL1        0.1442
     15 C         139.9694  141.0806  165.7601 C.ar    1  UNL1        0.0041
     16 C         140.0983  142.5545  165.5128 C.ar    1  UNL1       -0.0025
     17 C         139.0452  143.2781  164.7269 C.ar    1  UNL1       -0.0003
     18 C         137.8633  142.5278  164.1883 C.ar    1  UNL1       -0.0001
     19 C         137.7344  141.0539  164.4356 C.ar    1  UNL1        0.0036
     20 C         138.7874  140.3303  165.2214 C.ar    1  UNL1        0.0693
     21 C         138.6585  138.8565  165.4687 C.3     1  UNL1        0.4183
     22 F         138.5295  137.3826  165.7159 F       1  UNL1       -0.1659
     23 F         137.7256  139.1297  166.6111 F       1  UNL1       -0.1659
     24 F         139.0640  138.3605  164.9943 F       1  UNL1       -0.1659
@<TRIPOS>BOND
     1     2     1    1
     2     2     3    1
     3     4     3    1
     4     4     5    1
     5     5     6    1
     6     6     7    1
     7     7     8    1
     8     7     9    2
     9     9    10    1
    10    10    15    1
    11    15    16   ar
    12    16    17   ar
    13    17    18   ar
    14    18    19   ar
    15    19    20   ar
    16    20    21    1
    17    21    22    1
    18    21    23    1
    19    21    24    1
    20    10    11    1
    21    11    12    1
    22    12     2    1
    23    10     4    1
    24    20    15   ar
    25     8    13    1
    26     8    14    1
@<TRIPOS>MOLECULE
*****
 24 26 0 0 0
SMALL
GASTEIGER

@<TRIPOS>ATOM
      1 C         140.3250  141.7793  170.4912 C.3     1  UNL1        0.0320
      2 C         140.3070  141.7619  168.9914 C.3     1  UNL1        0.1155
      3 C         139.6124  140.6500  168.2626 C.3     1  UNL1        0.0327
      4 C         139.5944  140.6325  166.7628 C.3     1  UNL1        0.0406
      5 C         138.8998  139.5206  166.0340 C.3     1  UNL1        0.0672
      6 S         138.8817  139.5031  164.5342 S.3     1  UNL1       -0.0807
      7 C         139.5583  140.5977  163.7632 C.2     1  UNL1        0.1482
      8 N         139.5402  140.5803  162.2635 N.pl3   1  UNL1       -0.3380
      9 N         140.2528  141.7096  164.4921 N.2     1  UNL1       -0.2484
     10 C         140.2709  141.7270  165.9919 C.3     1  UNL1        0.1330
     11 C         140.9654  142.8389  166.7207 C.3     1  UNL1        0.1685
     12 O         140.9835  142.8563  168.2205 O.3     1  UNL1       -0.3539
     13 H         139.0844  139.8505  161.7851 H       1  UNL1        0.1442
     14 H         139.9842  141.2987  161.7574 H       1  UNL1        0.1442
     15 C         140.9474  142.8215  165.2209 C.ar    1  UNL1        0.0041
     16 C         142.4319  142.7830  165.0097 C.ar    1  UNL1       -0.0025
     17 C         143.1084  143.8776  164.2386 C.ar    1  UNL1       -0.0003
     18 C         142.3003  145.0106  163.6790 C.ar    1  UNL1       -0.0001
     19 C         140.8158  145.0491  163.8902 C.ar    1  UNL1        0.0036
     20 C         140.1393  143.9546  164.6612 C.ar    1  UNL1        0.0693
     21 C         138.6547  143.9931  164.8724 C.3     1  UNL1        0.4183
     22 F         137.1702  144.0316  165.0837 F       1  UNL1       -0.1659
     23 F         138.8341  145.0267  165.9446 F       1  UNL1       -0.1659
     24 F         138.2001  143.5177  164.4221 F       1  UNL1       -0.1659
@<TRIPOS>BOND
     1     2     1    1
     2     2     3    1
     3     4     3    1
     4     4     5    1
     5     5     6    1
     6     6     7    1
     7     7     8    1
     8     7     9    2
     9     9    10    1
    10    10    15    1
    11    15    16   ar
    12    16    17   ar
    13    17    18   ar
    14    18    19   ar
    15    19    20   ar
    16    20    21    1
    17    21    22    1
    18    21    23    1
    19    21    24    1
    20    10    11    1
    21    11    12    1
    22    12     2    1
    23    10     4    1
    24    20    15   ar
    25     8    13    1
    26     8    14    1
@<TRIPOS>MOLECULE
*****
 24 26 0 0 0
SMALL
GASTEIGER

@<TRIPOS>ATOM
      1 C         137.4729  141.2257  162.8827 C.3     1  UNL1        0.0320
      2 C         138.6253  141.0012  163.8162 C.3     1  UNL1        0.1155
      3 C         138.3705  140.6932  165.2619 C.3     1  UNL1        0.0327
      4 C         139.5229  140.4687  166.1954 C.3     1  UNL1        0.0406
      5 C         139.2680  140.1607  167.6412 C.3     1  UNL1        0.0672
      6 S         140.4204  139.9362  168.5747 S.3     1  UNL1       -0.0807
      7 C         141.8278  140.0196  168.0624 C.2     1  UNL1        0.1482
      8 N         142.9803  139.7951  168.9959 N.pl3   1  UNL1       -0.3380
      9 N         142.0827  140.3276  166.6167 N.2     1  UNL1       -0.2484
     10 C         140.9302  140.5521  165.6832 C.3     1  UNL1        0.1330
     11 C         141.1851  140.8601  164.2375 C.3     1  UNL1        0.1685
     12 O         140.0327  141.0847  163.3040 O.3     1  UNL1       -0.3539
     13 H         142.8130  139.5930  169.9448 H       1  UNL1        0.1442
     14 H         143.9040  139.8499  168.6598 H       1  UNL1        0.1442
     15 C         142.3376  140.6356  165.1710 C.ar    1  UNL1        0.0041
     16 C         143.0127  141.9693  165.0469 C.ar    1  UNL1       -0.0025
     17 C         144.4201  142.0527  164.5347 C.ar    1  UNL1       -0.0003
     18 C         145.1523  140.8025  164.1466 C.ar    1  UNL1       -0.0001
     19 C         144.4772  139.4688  164.2707 C.ar    1  UNL1        0.0036
     20 C         143.0699  139.3853  164.7829 C.ar    1  UNL1        0.0693
     21 C         142.3948  138.0516  164.9070 C.3     1  UNL1        0.4183
     22 F         141.7196  136.7179  165.0311 F       1  UNL1       -0.1659
     23 F         143.3282  137.6828  166.0217 F       1  UNL1       -0.1659
     24 F         141.7883  137.8918  164.4149 F       1  UNL1       -0.1659
@<TRIPOS>BOND
     1     2     1    1
     2     2     3    1
     3     4     3    1
     4     4     5    1
     5     5     6    1
     6     6     7    1
     7     7     8    1
     8     7     9    2
     9     9    10    1
    10    10    15    1
    11    15    16   ar
    12    16    17   ar
    13    17    18   ar
    14    18    19   ar
    15    19    20   ar
    16    20    21    1
    17    21    22    1
    18    21    23    1
    19    21    24    1
    20    10    11    1
    21    11    12    1
    22    12     2    1
    23    10     4    1
    24    20    15   ar
    25     8    13    1
    26     8    14    1
@<TRIPOS>MOLECULE
*****
 24 26 0 0 0
SMALL
GASTEIGER

@<TRIPOS>ATOM
      1 C         141.6316  142.9180  170.0257 C.3     1  UNL1        0.0320
      2 C         141.7069  142.4234  168.6116 C.3     1  UNL1        0.1155
      3 C         140.4819  141.8735  167.9432 C.3     1  UNL1        0.0327
      4 C         140.5571  141.3789  166.5291 C.3     1  UNL1        0.0406
      5 C         139.3320  140.8290  165.8606 C.3     1  UNL1        0.0672
      6 S         139.4073  140.3343  164.4466 S.3     1  UNL1       -0.0807
      7 C         140.7077  140.3896  163.7009 C.2     1  UNL1        0.1482
      8 N         140.7829  139.8950  162.2868 N.pl3   1  UNL1       -0.3380
      9 N         141.9327  140.9395  164.3693 N.2     1  UNL1       -0.2484
     10 C         141.8575  141.4341  165.7834 C.3     1  UNL1        0.1330
     11 C         143.0825  141.9840  166.4518 C.3     1  UNL1        0.1685
     12 O         143.0072  142.4786  167.8659 O.3     1  UNL1       -0.3539
     13 H         139.9789  139.5341  161.8481 H       1  UNL1        0.1442
     14 H         141.6364  139.9312  161.7974 H       1  UNL1        0.1442
     15 C         143.1578  141.4894  165.0377 C.ar    1  UNL1        0.0041
     16 C         143.6426  142.7908  164.4709 C.ar    1  UNL1       -0.0025
     17 C         144.9430  142.8459  163.7252 C.ar    1  UNL1       -0.0003
     18 C         145.7585  141.5998  163.5464 C.ar    1  UNL1       -0.0001
     19 C         145.2736  140.2984  164.1132 C.ar    1  UNL1        0.0036
     20 C         143.9733  140.2431  164.8588 C.ar    1  UNL1        0.0693
     21 C         143.4885  138.9417  165.4257 C.3     1  UNL1        0.4183
     22 F         143.0036  137.6403  165.9925 F       1  UNL1       -0.1659
     23 F         143.3561  138.3868  164.0384 F       1  UNL1       -0.1659
     24 F         143.4296  138.8774  166.2180 F       1  UNL1       -0.1659
@<TRIPOS>BOND
     1     2     1    1
     2     2     3    1
     3     4     3    1
     4     4     5    1
     5     5     6    1
     6     6     7    1
     7     7     8    1
     8     7     9    2
     9     9    10    1
    10    10    15    1
    11    15    16   ar
    12    16    17   ar
    13    17    18   ar
    14    18    19   ar
    15    19    20   ar
    16    20    21    1
    17    21    22    1
    18    21    23    1
    19    21    24    1
    20    10    11    1
    21    11    12    1
    22    12     2    1
    23    10     4    1
    24    20    15   ar
    25     8    13    1
    26     8    14    1
@<TRIPOS>MOLECULE
*****
 24 26 0 0 0
SMALL
GASTEIGER

@<TRIPOS>ATOM
      1 C         144.0978  143.8841  163.5091 C.3     1  UNL1        0.0320
      2 C         143.3570  143.0105  164.4776 C.3     1  UNL1        0.1155
      3 C         143.6749  143.0766  165.9420 C.3     1  UNL1        0.0327
      4 C         142.9341  142.2030  166.9105 C.3     1  UNL1        0.0406
      5 C         143.2521  142.2692  168.3750 C.3     1  UNL1        0.0672
      6 S         142.5113  141.3955  169.3435 S.3     1  UNL1       -0.0807
      7 C         141.4526  140.4556  168.8475 C.2     1  UNL1        0.1482
      8 N         140.7118  139.5820  169.8160 N.pl3   1  UNL1       -0.3380
      9 N         141.1347  140.3895  167.3831 N.2     1  UNL1       -0.2484
     10 C         141.8755  141.2631  166.4146 C.3     1  UNL1        0.1330
     11 C         141.5576  141.1970  164.9502 C.3     1  UNL1        0.1685
     12 O         142.2984  142.0706  163.9817 O.3     1  UNL1       -0.3539
     13 H         140.9205  139.6254  170.7772 H       1  UNL1        0.1442
     14 H         140.0170  138.9651  169.4905 H       1  UNL1        0.1442
     15 C         140.8169  140.3233  165.9187 C.ar    1  UNL1        0.0041
     16 C         139.4108  140.8102  165.7289 C.ar    1  UNL1       -0.0025
     17 C         138.3522  139.8703  165.2329 C.ar    1  UNL1       -0.0003
     18 C         138.6996  138.4436  164.9268 C.ar    1  UNL1       -0.0001
     19 C         140.1056  137.9567  165.1167 C.ar    1  UNL1        0.0036
     20 C         141.1642  138.8965  165.6126 C.ar    1  UNL1        0.0693
     21 C         142.5703  138.4096  165.8024 C.3     1  UNL1        0.4183
     22 F         143.9763  137.9227  165.9922 F       1  UNL1       -0.1659
     23 F         142.7455  138.3356  164.3145 F       1  UNL1       -0.1659
     24 F         142.8389  138.3228  166.5479 F       1  UNL1       -0.1659
@<TRIPOS>BOND
     1     2     1    1
     2     2     3    1
     3     4     3    1
     4     4     5    1
     5     5     6    1
     6     6     7    1
     7     7     8    1
     8     7     9    2
     9     9    10    1
    10    10    15    1
    11    15    16   ar
    12    16    17   ar
    13    17    18   ar
    14    18    19   ar
    15    19    20   ar
    16    20    21    1
    17    21    22    1
    18    21    23    1
    19    21    24    1
    20    10    11    1
    21    11    12    1
    22    12     2    1
    23    10     4    1
    24    20    15   ar
    25     8    13    1
    26     8    14    1
@<TRIPOS>MOLECULE
*****
 24 26 0 0 0
SMALL
GASTEIGER

@<TRIPOS>ATOM
      1 C         141.8215  141.1743  171.1696 C.3     1  UNL1        0.0320
      2 C         141.8753  141.0643  169.6746 C.3     1  UNL1        0.1155
      3 C         142.7295  142.0097  168.8832 C.3     1  UNL1        0.0327
      4 C         142.7833  141.8996  167.3882 C.3     1  UNL1        0.0406
      5 C         143.6376  142.8452  166.5968 C.3     1  UNL1        0.0672
      6 S         143.6914  142.7351  165.1018 S.3     1  UNL1       -0.0807
      7 C         142.8909  141.6795  164.3982 C.2     1  UNL1        0.1482
      8 N         142.9447  141.5694  162.9032 N.pl3   1  UNL1       -0.3380
      9 N         142.0367  140.7340  165.1896 N.2     1  UNL1       -0.2484
     10 C         141.9829  140.8441  166.6846 C.3     1  UNL1        0.1330
     11 C         141.1287  139.8986  167.4760 C.3     1  UNL1        0.1685
     12 O         141.0749  140.0087  168.9710 O.3     1  UNL1       -0.3539
     13 H         143.5054  142.1900  162.3838 H       1  UNL1        0.1442
     14 H         142.4194  140.8766  162.4414 H       1  UNL1        0.1442
     15 C         141.1825  139.7886  165.9810 C.ar    1  UNL1        0.0041
     16 C         139.7127  139.9870  165.7565 C.ar    1  UNL1       -0.0025
     17 C         138.9123  138.9314  165.0528 C.ar    1  UNL1       -0.0003
     18 C         139.5816  137.6774  164.5738 C.ar    1  UNL1       -0.0001
     19 C         141.0514  137.4790  164.7983 C.ar    1  UNL1        0.0036
     20 C         141.8518  138.5345  165.5019 C.ar    1  UNL1        0.0693
     21 C         143.3216  138.3361  165.7264 C.3     1  UNL1        0.4183
     22 F         144.7914  138.1377  165.9510 F       1  UNL1       -0.1659
     23 F         143.5602  138.4311  164.2486 F       1  UNL1       -0.1659
     24 F         143.5764  138.2420  166.4759 F       1  UNL1       -0.1659
@<TRIPOS>BOND
     1     2     1    1
     2     2     3    1
     3     4     3    1
     4     4     5    1
     5     5     6    1
     6     6     7    1
     7     7     8    1
     8     7     9    2
     9     9    10    1
    10    10    15    1
    11    15    16   ar
    12    16    17   ar
    13    17    18   ar
    14    18    19   ar
    15    19    20   ar
    16    20    21    1
    17    21    22    1
    18    21    23    1
    19    21    24    1
    20    10    11    1
    21    11    12    1
    22    12     2    1
    23    10     4    1
    24    20    15   ar
    25     8    13    1
    26     8    14    1
@<TRIPOS>MOLECULE
*****
 24 26 0 0 0
SMALL
GASTEIGER

@<TRIPOS>ATOM
      1 C         138.5680  144.9866  165.6610 C.3     1  UNL1        0.0320
      2 C         138.9231  143.6667  165.0431 C.3     1  UNL1        0.1155
      3 C         138.0250  143.0574  164.0077 C.3     1  UNL1        0.0327
      4 C         138.3802  141.7375  163.3899 C.3     1  UNL1        0.0406
      5 C         137.4819  141.1282  162.3545 C.3     1  UNL1        0.0672
      6 S         137.8371  139.8083  161.7366 S.3     1  UNL1       -0.0807
      7 C         139.0905  139.0977  162.1541 C.2     1  UNL1        0.1482
      8 N         139.4457  137.7779  161.5362 N.pl3   1  UNL1       -0.3380
      9 N         139.9886  139.7071  163.1894 N.2     1  UNL1       -0.2484
     10 C         139.6335  141.0270  163.8073 C.3     1  UNL1        0.1330
     11 C         140.5316  141.6363  164.8427 C.3     1  UNL1        0.1685
     12 O         140.1765  142.9562  165.4605 O.3     1  UNL1       -0.3539
     13 H         138.8562  137.3779  160.8567 H       1  UNL1        0.1442
     14 H         140.2683  137.3115  161.8102 H       1  UNL1        0.1442
     15 C         140.8868  140.3165  164.2248 C.ar    1  UNL1        0.0041
     16 C         142.2174  140.7757  163.7066 C.ar    1  UNL1       -0.0025
     17 C         143.4707  140.0651  164.1241 C.ar    1  UNL1       -0.0003
     18 C         143.3934  138.8953  165.0597 C.ar    1  UNL1       -0.0001
     19 C         142.0628  138.4361  165.5780 C.ar    1  UNL1        0.0036
     20 C         140.8095  139.1466  165.1605 C.ar    1  UNL1        0.0693
     21 C         139.4789  138.6873  165.6787 C.3     1  UNL1        0.4183
     22 F         138.1483  138.2280  166.1969 F       1  UNL1       -0.1659
     23 F         139.6791  137.3575  165.0142 F       1  UNL1       -0.1659
     24 F         139.0530  139.1966  166.1198 F       1  UNL1       -0.1659
@<TRIPOS>BOND
     1     2     1    1
     2     2     3    1
     3     4     3    1
     4     4     5    1
     5     5     6    1
     6     6     7    1
     7     7     8    1
     8     7     9    2
     9     9    10    1
    10    10    15    1
    11    15    16   ar
    12    16    17   ar
    13    17    18   ar
    14    18    19   ar
    15    19    20   ar
    16    20    21    1
    17    21    22    1
    18    21    23    1
    19    21    24    1
    20    10    11    1
    21    11    12    1
    22    12     2    1
    23    10     4    1
    24    20    15   ar
    25     8    13    1
    26     8    14    1
