@<TRIPOS>MOLECULE
*****
 36 40 0 0 0
SMALL
GASTEIGER

@<TRIPOS>ATOM
      1 C         143.6015  141.1076  160.6848 C.ar    1  UNL1        0.1770
      2 N         142.4941  142.0150  161.1321 N.ar    1  UNL1       -0.2060
      3 C         142.3842  141.9113  162.6245 C.ar    1  UNL1        0.1977
      4 C         141.4719  142.5759  163.6123 C.ar    1  UNL1        0.1681
      5 N         141.5991  142.2691  165.0751 N.ar    1  UNL1       -0.2250
      6 C         142.6386  141.2977  165.5500 C.ar    1  UNL1        0.1142
      7 C         143.5510  140.6330  164.5622 C.ar    1  UNL1        0.1592
      8 CL        144.5906  139.6616  165.0372 Cl      1  UNL1       -0.0596
      9 N         143.4238  140.9398  163.0995 N.ar    1  UNL1       -0.1962
     10 N         144.1762  140.4431  161.9006 N.ar    1  UNL1       -0.1465
     11 C         142.7659  140.9909  167.0129 C.ar    1  UNL1        0.0585
     12 C         143.0678  142.0912  167.9865 C.ar    1  UNL1        0.1049
     13 N         143.1951  141.7844  169.4493 N.ar    1  UNL1       -0.2124
     14 C         143.0204  140.3771  169.9383 C.ar    1  UNL1        0.2137
     15 N         143.1476  140.0703  171.4011 N.pl3   1  UNL1       -0.3274
     16 N         142.7185  139.2768  168.9646 N.ar    1  UNL1       -0.2124
     17 C         142.5912  139.5837  167.5019 C.ar    1  UNL1        0.1049
     18 H         143.3458  140.7925  172.0401 H       1  UNL1        0.1452
     19 H         143.0330  139.1466  171.7221 H       1  UNL1        0.1452
     20 N         140.4322  143.5474  163.1374 N.pl3   1  UNL1       -0.2857
     21 C         140.8481  144.8183  162.4578 C.3     1  UNL1        0.1243
     22 C         139.8084  145.7897  161.9830 C.3     1  UNL1        0.1636
     23 O         138.3530  145.4902  162.1878 O.3     1  UNL1       -0.3501
     24 C         137.9371  144.2194  162.8674 C.3     1  UNL1        0.1636
     25 C         138.9768  143.2480  163.3422 C.3     1  UNL1        0.1243
     26 C         144.0549  140.9010  159.2699 C.3     1  UNL1        0.1408
     27 N         142.7873  137.2180  157.0161 N.3     1  UNL1       -0.1565
     28 C         143.3279  138.4033  156.2726 C.3     1  UNL1        0.1128
     29 C         143.7504  139.6310  157.0240 C.3     1  UNL1        0.0918
     30 N         143.6323  139.6733  158.5187 N.3     1  UNL1       -0.2637
     31 C         143.0917  138.4879  159.2621 C.3     1  UNL1        0.0918
     32 C         142.6692  137.2604  158.5109 C.3     1  UNL1        0.1128
     33 C         141.9421  134.7628  155.5137 C.3     1  UNL1        0.1960
     34 S         142.3647  135.9904  156.2649 S.O2    1  UNL1        0.0457
     35 O         143.7655  135.4599  156.3440 O.2     1  UNL1       -0.1572
     36 O         140.9639  136.5209  156.1858 O.2     1  UNL1       -0.1572
@<TRIPOS>BOND
     1    33    34    1
     2    34    35    2
     3    34    36    2
     4    34    27    1
     5    27    28    1
     6    28    29    1
     7    29    30    1
     8    30    26    1
     9    26     1    1
    10     1     2   ar
    11     2     3   ar
    12     3     4   ar
    13     4    20    1
    14    20    21    1
    15    21    22    1
    16    22    23    1
    17    23    24    1
    18    24    25    1
    19     4     5   ar
    20     5     6   ar
    21     6    11    1
    22    11    12   ar
    23    12    13   ar
    24    13    14   ar
    25    14    15    1
    26    14    16   ar
    27    16    17   ar
    28     6     7   ar
    29     7     8    1
    30     7     9   ar
    31     9    10   ar
    32    30    31    1
    33    31    32    1
    34    32    27    1
    35    10     1   ar
    36     9     3   ar
    37    25    20    1
    38    17    11   ar
    39    15    18    1
    40    15    19    1
@<TRIPOS>MOLECULE
*****
 36 40 0 0 0
SMALL
GASTEIGER

@<TRIPOS>ATOM
      1 C         143.0180  142.6380  161.0552 C.ar    1  UNL1        0.1770
      2 N         141.8095  141.7697  161.2434 N.ar    1  UNL1       -0.2060
      3 C         141.6908  141.4508  162.7043 C.ar    1  UNL1        0.1977
      4 C         140.6957  140.6360  163.4761 C.ar    1  UNL1        0.1681
      5 N         140.8359  140.4924  164.9627 N.ar    1  UNL1       -0.2250
      6 C         141.9710  141.1635  165.6773 C.ar    1  UNL1        0.1142
      7 C         142.9662  141.9784  164.9055 C.ar    1  UNL1        0.1592
      8 CL        144.1014  142.6496  165.6202 Cl      1  UNL1       -0.0596
      9 N         142.8260  142.1220  163.4190 N.ar    1  UNL1       -0.1962
     10 N         143.6463  142.8558  162.3998 N.ar    1  UNL1       -0.1465
     11 C         142.1112  141.0199  167.1639 C.ar    1  UNL1        0.0585
     12 C         142.7090  139.7725  167.7438 C.ar    1  UNL1        0.1049
     13 N         142.8491  139.6288  169.2304 N.ar    1  UNL1       -0.2124
     14 C         142.3915  140.7328  170.1369 C.ar    1  UNL1        0.2137
     15 N         142.5316  140.5892  171.6234 N.pl3   1  UNL1       -0.3274
     16 N         141.7937  141.9803  169.5569 N.ar    1  UNL1       -0.2124
     17 C         141.6535  142.1238  168.0704 C.ar    1  UNL1        0.1049
     18 H         142.9240  139.7704  172.0041 H       1  UNL1        0.1452
     19 H         142.2312  141.3138  172.2184 H       1  UNL1        0.1452
     20 N         139.5604  139.9647  162.7615 N.pl3   1  UNL1       -0.2857
     21 C         138.5917  140.7816  161.9590 C.3     1  UNL1        0.1243
     22 C         137.4564  140.1103  161.2444 C.3     1  UNL1        0.1636
     23 O         137.2900  138.6222  161.3324 O.3     1  UNL1       -0.3501
     24 C         138.2588  137.8053  162.1350 C.3     1  UNL1        0.1636
     25 C         139.3940  138.4766  162.8495 C.3     1  UNL1        0.1243
     26 C         143.5117  143.1914  159.7514 C.3     1  UNL1        0.1408
     27 N         140.7108  145.4791  157.0733 N.3     1  UNL1       -0.1565
     28 C         141.7913  144.6273  156.4758 C.3     1  UNL1        0.1128
     29 C         142.7249  143.8647  157.3686 C.3     1  UNL1        0.0918
     30 N         142.5780  143.9540  158.8587 N.3     1  UNL1       -0.2637
     31 C         141.4975  144.8058  159.4561 C.3     1  UNL1        0.0918
     32 C         140.5639  145.5683  158.5634 C.3     1  UNL1        0.1128
     33 C         138.8436  147.0042  155.2880 C.3     1  UNL1        0.1960
     34 S         139.7772  146.2417  156.1807 S.O2    1  UNL1        0.0457
     35 O         139.3887  147.1172  157.3350 O.2     1  UNL1       -0.1572
     36 O         140.1657  145.3661  155.0264 O.2     1  UNL1       -0.1572
@<TRIPOS>BOND
     1    33    34    1
     2    34    35    2
     3    34    36    2
     4    34    27    1
     5    27    28    1
     6    28    29    1
     7    29    30    1
     8    30    26    1
     9    26     1    1
    10     1     2   ar
    11     2     3   ar
    12     3     4   ar
    13     4    20    1
    14    20    21    1
    15    21    22    1
    16    22    23    1
    17    23    24    1
    18    24    25    1
    19     4     5   ar
    20     5     6   ar
    21     6    11    1
    22    11    12   ar
    23    12    13   ar
    24    13    14   ar
    25    14    15    1
    26    14    16   ar
    27    16    17   ar
    28     6     7   ar
    29     7     8    1
    30     7     9   ar
    31     9    10   ar
    32    30    31    1
    33    31    32    1
    34    32    27    1
    35    10     1   ar
    36     9     3   ar
    37    25    20    1
    38    17    11   ar
    39    15    18    1
    40    15    19    1
@<TRIPOS>MOLECULE
*****
 36 40 0 0 0
SMALL
GASTEIGER

@<TRIPOS>ATOM
      1 C         143.1581  140.5425  160.8856 C.ar    1  UNL1        0.1770
      2 N         142.1771  141.6095  161.2717 N.ar    1  UNL1       -0.2060
      3 C         142.0778  141.6281  162.7683 C.ar    1  UNL1        0.1977
      4 C         141.2687  142.4698  163.7101 C.ar    1  UNL1        0.1681
      5 N         141.3793  142.2560  165.1907 N.ar    1  UNL1       -0.2250
      6 C         142.2989  141.2006  165.7295 C.ar    1  UNL1        0.1142
      7 C         143.1079  140.3589  164.7877 C.ar    1  UNL1        0.1592
      8 CL        144.0275  139.3034  165.3265 Cl      1  UNL1       -0.0596
      9 N         142.9974  140.5726  163.3071 N.ar    1  UNL1       -0.1962
     10 N         143.6651  139.9016  162.1435 N.ar    1  UNL1       -0.1465
     11 C         142.4095  140.9868  167.2101 C.ar    1  UNL1        0.0585
     12 C         143.1266  141.9920  168.0615 C.ar    1  UNL1        0.1049
     13 N         143.2372  141.7782  169.5421 N.ar    1  UNL1       -0.2124
     14 C         142.6306  140.5590  170.1712 C.ar    1  UNL1        0.2137
     15 N         142.7412  140.3452  171.6517 N.pl3   1  UNL1       -0.3274
     16 N         141.9134  139.5538  169.3196 N.ar    1  UNL1       -0.2124
     17 C         141.8029  139.7676  167.8391 C.ar    1  UNL1        0.1049
     18 H         143.2119  141.0050  172.2106 H       1  UNL1        0.1452
     19 H         142.3430  139.5450  172.0646 H       1  UNL1        0.1452
     20 N         140.3491  143.5254  163.1714 N.pl3   1  UNL1       -0.2857
     21 C         138.8632  143.3545  163.2848 C.3     1  UNL1        0.1243
     22 C         137.9437  144.4101  162.7460 C.3     1  UNL1        0.1636
     23 O         138.5101  145.6364  162.0939 O.3     1  UNL1       -0.3501
     24 C         139.9959  145.8073  161.9805 C.3     1  UNL1        0.1636
     25 C         140.9155  144.7517  162.5193 C.3     1  UNL1        0.1243
     26 C         143.5614  140.1799  159.4871 C.3     1  UNL1        0.1408
     27 N         140.5339  138.4306  156.6543 N.3     1  UNL1       -0.1565
     28 C         141.6166  137.5629  157.2243 C.3     1  UNL1        0.1128
     29 C         142.6258  138.1461  158.1686 C.3     1  UNL1        0.0918
     30 N         142.5522  139.5968  158.5428 N.3     1  UNL1       -0.2637
     31 C         141.4695  140.4644  157.9727 C.3     1  UNL1        0.0918
     32 C         140.4604  139.8813  157.0285 C.3     1  UNL1        0.1128
     33 C         138.5156  137.2645  154.7658 C.3     1  UNL1        0.1960
     34 S         139.5248  137.8475  155.7100 S.O2    1  UNL1        0.0457
     35 O         140.5025  136.7767  155.3263 O.2     1  UNL1       -0.1572
     36 O         138.5470  138.9184  156.0938 O.2     1  UNL1       -0.1572
@<TRIPOS>BOND
     1    33    34    1
     2    34    35    2
     3    34    36    2
     4    34    27    1
     5    27    28    1
     6    28    29    1
     7    29    30    1
     8    30    26    1
     9    26     1    1
    10     1     2   ar
    11     2     3   ar
    12     3     4   ar
    13     4    20    1
    14    20    21    1
    15    21    22    1
    16    22    23    1
    17    23    24    1
    18    24    25    1
    19     4     5   ar
    20     5     6   ar
    21     6    11    1
    22    11    12   ar
    23    12    13   ar
    24    13    14   ar
    25    14    15    1
    26    14    16   ar
    27    16    17   ar
    28     6     7   ar
    29     7     8    1
    30     7     9   ar
    31     9    10   ar
    32    30    31    1
    33    31    32    1
    34    32    27    1
    35    10     1   ar
    36     9     3   ar
    37    25    20    1
    38    17    11   ar
    39    15    18    1
    40    15    19    1
@<TRIPOS>MOLECULE
*****
 36 40 0 0 0
SMALL
GASTEIGER

@<TRIPOS>ATOM
      1 C         141.4389  139.1124  161.3305 C.ar    1  UNL1        0.1770
      2 N         140.8661  140.4700  161.6112 N.ar    1  UNL1       -0.2060
      3 C         140.9790  140.7250  163.0851 C.ar    1  UNL1        0.1977
      4 C         140.5797  141.8948  163.9347 C.ar    1  UNL1        0.1681
      5 N         140.8231  141.8647  165.4146 N.ar    1  UNL1       -0.2250
      6 C         141.4657  140.6648  166.0447 C.ar    1  UNL1        0.1142
      7 C         141.8650  139.4949  165.1951 C.ar    1  UNL1        0.1592
      8 CL        142.5077  138.2950  165.8252 Cl      1  UNL1       -0.0596
      9 N         141.6217  139.5250  163.7153 N.ar    1  UNL1       -0.1962
     10 N         141.9059  138.5284  162.6309 N.ar    1  UNL1       -0.1465
     11 C         141.7091  140.6347  167.5246 C.ar    1  UNL1        0.0585
     12 C         142.9236  141.3018  168.0987 C.ar    1  UNL1        0.1049
     13 N         143.1670  141.2717  169.5785 N.ar    1  UNL1       -0.2124
     14 C         142.1957  140.5743  170.4842 C.ar    1  UNL1        0.2137
     15 N         142.4391  140.5441  171.9640 N.pl3   1  UNL1       -0.3274
     16 N         140.9812  139.9071  169.9101 N.ar    1  UNL1       -0.2124
     17 C         140.7378  139.9373  168.4303 C.ar    1  UNL1        0.1049
     18 H         143.2362  140.9821  172.3409 H       1  UNL1        0.1452
     19 H         141.8016  140.0864  172.5585 H       1  UNL1        0.1452
     20 N         139.9370  143.0949  163.3046 N.pl3   1  UNL1       -0.2857
     21 C         140.7705  144.0718  162.5296 C.3     1  UNL1        0.1243
     22 C         140.1278  145.2717  161.8995 C.3     1  UNL1        0.1636
     23 O         138.6516  145.4947  162.0446 O.3     1  UNL1       -0.3501
     24 C         137.8180  144.5178  162.8196 C.3     1  UNL1        0.1636
     25 C         138.4608  143.3178  163.4497 C.3     1  UNL1        0.1243
     26 C         141.5290  138.4543  159.9856 C.3     1  UNL1        0.1408
     27 N         144.4042  140.0244  156.9005 N.3     1  UNL1       -0.1565
     28 C         144.3508  140.6498  158.2629 C.3     1  UNL1        0.1128
     29 C         143.3923  140.1263  159.2913 C.3     1  UNL1        0.0918
     30 N         142.4874  138.9776  158.9572 N.3     1  UNL1       -0.2637
     31 C         142.5408  138.3524  157.5948 C.3     1  UNL1        0.0918
     32 C         143.4993  138.8758  156.5665 C.3     1  UNL1        0.1128
     33 C         146.3210  141.0712  154.8438 C.3     1  UNL1        0.1960
     34 S         145.3626  140.5478  155.8721 S.O2    1  UNL1        0.0457
     35 O         145.5964  139.1506  155.3790 O.2     1  UNL1       -0.1572
     36 O         145.1288  141.9450  156.3653 O.2     1  UNL1       -0.1572
@<TRIPOS>BOND
     1    33    34    1
     2    34    35    2
     3    34    36    2
     4    34    27    1
     5    27    28    1
     6    28    29    1
     7    29    30    1
     8    30    26    1
     9    26     1    1
    10     1     2   ar
    11     2     3   ar
    12     3     4   ar
    13     4    20    1
    14    20    21    1
    15    21    22    1
    16    22    23    1
    17    23    24    1
    18    24    25    1
    19     4     5   ar
    20     5     6   ar
    21     6    11    1
    22    11    12   ar
    23    12    13   ar
    24    13    14   ar
    25    14    15    1
    26    14    16   ar
    27    16    17   ar
    28     6     7   ar
    29     7     8    1
    30     7     9   ar
    31     9    10   ar
    32    30    31    1
    33    31    32    1
    34    32    27    1
    35    10     1   ar
    36     9     3   ar
    37    25    20    1
    38    17    11   ar
    39    15    18    1
    40    15    19    1
@<TRIPOS>MOLECULE
*****
 36 40 0 0 0
SMALL
GASTEIGER

@<TRIPOS>ATOM
      1 C         140.0854  139.3813  161.8189 C.ar    1  UNL1        0.1770
      2 N         140.1556  140.8712  161.6605 N.ar    1  UNL1       -0.2060
      3 C         140.5479  141.4599  162.9832 C.ar    1  UNL1        0.1977
      4 C         140.7706  142.8759  163.4252 C.ar    1  UNL1        0.1681
      5 N         141.1655  143.1658  164.8430 N.ar    1  UNL1       -0.2250
      6 C         141.3376  142.0397  165.8187 C.ar    1  UNL1        0.1142
      7 C         141.1149  140.6237  165.3768 C.ar    1  UNL1        0.1592
      8 CL        141.2871  139.4976  166.3527 Cl      1  UNL1       -0.0596
      9 N         140.7201  140.3338  163.9591 N.ar    1  UNL1       -0.1962
     10 N         140.4342  139.0491  163.2395 N.ar    1  UNL1       -0.1465
     11 C         141.7325  142.3296  167.2366 C.ar    1  UNL1        0.0585
     12 C         140.6831  142.6705  168.2526 C.ar    1  UNL1        0.1049
     13 N         141.0780  142.9604  169.6704 N.ar    1  UNL1       -0.2124
     14 C         142.5223  142.9092  170.0721 C.ar    1  UNL1        0.2137
     15 N         142.9172  143.1991  171.4898 N.pl3   1  UNL1       -0.3274
     16 N         143.5717  142.5682  169.0560 N.ar    1  UNL1       -0.2124
     17 C         143.1768  142.2784  167.6382 C.ar    1  UNL1        0.1049
     18 H         142.2285  143.4229  172.1567 H       1  UNL1        0.1452
     19 H         143.8652  143.1655  171.7534 H       1  UNL1        0.1452
     20 N         140.5985  144.0021  162.4494 N.pl3   1  UNL1       -0.2857
     21 C         141.3282  143.9773  161.1391 C.3     1  UNL1        0.1243
     22 C         141.1560  145.1035  160.1634 C.3     1  UNL1        0.1636
     23 O         140.2541  146.2544  160.4980 O.3     1  UNL1       -0.3501
     24 C         139.5244  146.2792  161.8082 C.3     1  UNL1        0.1636
     25 C         139.6966  145.1530  162.7839 C.3     1  UNL1        0.1243
     26 C         139.7288  138.3963  160.7452 C.3     1  UNL1        0.1408
     27 N         141.9470  138.4346  156.8301 N.3     1  UNL1       -0.1565
     28 C         140.4499  138.5275  156.8448 C.3     1  UNL1        0.1128
     29 C         139.7106  138.5148  158.1500 C.3     1  UNL1        0.0918
     30 N         140.4682  138.4091  159.4402 N.3     1  UNL1       -0.2637
     31 C         141.9653  138.3161  159.4254 C.3     1  UNL1        0.0918
     32 C         142.7046  138.3289  158.1203 C.3     1  UNL1        0.1128
     33 C         143.4258  138.4600  154.2201 C.3     1  UNL1        0.1960
     34 S         142.6864  138.4473  155.5250 S.O2    1  UNL1        0.0457
     35 O         141.4098  138.7660  154.8048 O.2     1  UNL1       -0.1572
     36 O         143.9630  138.1286  156.2452 O.2     1  UNL1       -0.1572
@<TRIPOS>BOND
     1    33    34    1
     2    34    35    2
     3    34    36    2
     4    34    27    1
     5    27    28    1
     6    28    29    1
     7    29    30    1
     8    30    26    1
     9    26     1    1
    10     1     2   ar
    11     2     3   ar
    12     3     4   ar
    13     4    20    1
    14    20    21    1
    15    21    22    1
    16    22    23    1
    17    23    24    1
    18    24    25    1
    19     4     5   ar
    20     5     6   ar
    21     6    11    1
    22    11    12   ar
    23    12    13   ar
    24    13    14   ar
    25    14    15    1
    26    14    16   ar
    27    16    17   ar
    28     6     7   ar
    29     7     8    1
    30     7     9   ar
    31     9    10   ar
    32    30    31    1
    33    31    32    1
    34    32    27    1
    35    10     1   ar
    36     9     3   ar
    37    25    20    1
    38    17    11   ar
    39    15    18    1
    40    15    19    1
@<TRIPOS>MOLECULE
*****
 36 40 0 0 0
SMALL
GASTEIGER

@<TRIPOS>ATOM
      1 C         142.3023  137.6228  156.3924 C.ar    1  UNL1        0.1770
      2 N         143.2562  138.6118  155.7908 N.ar    1  UNL1       -0.2060
      3 C         143.5001  139.6937  156.8008 C.ar    1  UNL1        0.1977
      4 C         144.3498  140.9292  156.7626 C.ar    1  UNL1        0.1681
      5 N         144.3964  141.8444  157.9503 N.ar    1  UNL1       -0.2250
      6 C         143.5933  141.5240  159.1759 C.ar    1  UNL1        0.1142
      7 C         142.7435  140.2885  159.2140 C.ar    1  UNL1        0.1592
      8 CL        141.9404  139.9681  160.4397 Cl      1  UNL1       -0.0596
      9 N         142.6970  139.3733  158.0265 N.ar    1  UNL1       -0.1962
     10 N         141.9566  138.0934  157.7740 N.ar    1  UNL1       -0.1465
     11 C         143.6398  142.4391  160.3635 C.ar    1  UNL1        0.0585
     12 C         142.6319  143.5414  160.5010 C.ar    1  UNL1        0.1049
     13 N         142.6784  144.4566  161.6886 N.ar    1  UNL1       -0.2124
     14 C         143.7330  144.2693  162.7388 C.ar    1  UNL1        0.2137
     15 N         143.7795  145.1844  163.9264 N.pl3   1  UNL1       -0.3274
     16 N         144.7409  143.1670  162.6013 N.ar    1  UNL1       -0.2124
     17 C         144.6943  142.2519  161.4137 C.ar    1  UNL1        0.1049
     18 H         143.1180  145.9079  164.0166 H       1  UNL1        0.1452
     19 H         144.4717  145.0615  164.6157 H       1  UNL1        0.1452
     20 N         145.1531  141.2496  155.5370 N.pl3   1  UNL1       -0.2857
     21 C         144.4650  141.4382  154.2175 C.3     1  UNL1        0.1243
     22 C         145.2683  141.7586  152.9919 C.3     1  UNL1        0.1636
     23 O         146.7595  141.8905  153.0858 O.3     1  UNL1       -0.3501
     24 C         147.4476  141.7019  154.4053 C.3     1  UNL1        0.1636
     25 C         146.6443  141.3815  155.6309 C.3     1  UNL1        0.1243
     26 C         141.7848  136.3811  155.7287 C.3     1  UNL1        0.1408
     27 N         143.3977  132.3531  156.9221 N.3     1  UNL1       -0.1565
     28 C         143.9659  133.5996  157.5332 C.3     1  UNL1        0.1128
     29 C         143.4282  134.9422  157.1354 C.3     1  UNL1        0.0918
     30 N         142.3224  135.0384  156.1265 N.3     1  UNL1       -0.2637
     31 C         141.7542  133.7919  155.5153 C.3     1  UNL1        0.0918
     32 C         142.2919  132.4493  155.9132 C.3     1  UNL1        0.1128
     33 C         144.4730  129.6679  157.7176 C.3     1  UNL1        0.1960
     34 S         143.9353  131.0105  157.3198 S.O2    1  UNL1        0.0457
     35 O         142.7878  130.3439  156.6207 O.2     1  UNL1       -0.1572
     36 O         145.0829  131.6771  158.0190 O.2     1  UNL1       -0.1572
@<TRIPOS>BOND
     1    33    34    1
     2    34    35    2
     3    34    36    2
     4    34    27    1
     5    27    28    1
     6    28    29    1
     7    29    30    1
     8    30    26    1
     9    26     1    1
    10     1     2   ar
    11     2     3   ar
    12     3     4   ar
    13     4    20    1
    14    20    21    1
    15    21    22    1
    16    22    23    1
    17    23    24    1
    18    24    25    1
    19     4     5   ar
    20     5     6   ar
    21     6    11    1
    22    11    12   ar
    23    12    13   ar
    24    13    14   ar
    25    14    15    1
    26    14    16   ar
    27    16    17   ar
    28     6     7   ar
    29     7     8    1
    30     7     9   ar
    31     9    10   ar
    32    30    31    1
    33    31    32    1
    34    32    27    1
    35    10     1   ar
    36     9     3   ar
    37    25    20    1
    38    17    11   ar
    39    15    18    1
    40    15    19    1
@<TRIPOS>MOLECULE
*****
 36 40 0 0 0
SMALL
GASTEIGER

@<TRIPOS>ATOM
      1 C         137.1069  142.5051  155.6318 C.ar    1  UNL1        0.1770
      2 N         137.8642  143.7389  155.2391 N.ar    1  UNL1       -0.2060
      3 C         138.7537  144.1210  156.3849 C.ar    1  UNL1        0.1977
      4 C         139.7259  145.2485  156.5680 C.ar    1  UNL1        0.1681
      5 N         140.4904  145.3785  157.8521 N.ar    1  UNL1       -0.2250
      6 C         140.2827  144.3810  158.9528 C.ar    1  UNL1        0.1142
      7 C         139.3105  143.2535  158.7697 C.ar    1  UNL1        0.1592
      8 CL        139.1029  142.2559  159.8705 Cl      1  UNL1       -0.0596
      9 N         138.5460  143.1235  157.4857 N.ar    1  UNL1       -0.1962
     10 N         137.5282  142.1248  157.0203 N.ar    1  UNL1       -0.1465
     11 C         141.0473  144.5109  160.2369 C.ar    1  UNL1        0.0585
     12 C         142.3859  143.8501  160.3829 C.ar    1  UNL1        0.1049
     13 N         143.1504  143.9801  161.6669 N.ar    1  UNL1       -0.2124
     14 C         142.5762  144.7708  162.8049 C.ar    1  UNL1        0.2137
     15 N         143.3406  144.9007  164.0889 N.pl3   1  UNL1       -0.3274
     16 N         141.2375  145.4315  162.6588 N.ar    1  UNL1       -0.2124
     17 C         140.4730  145.3016  161.3748 C.ar    1  UNL1        0.1049
     18 H         144.2193  144.4670  164.1847 H       1  UNL1        0.1452
     19 H         142.9638  145.4197  164.8358 H       1  UNL1        0.1452
     20 N         139.9336  146.2461  155.4672 N.pl3   1  UNL1       -0.2857
     21 C         139.2685  147.5888  155.5365 C.3     1  UNL1        0.1243
     22 C         139.4762  148.5863  154.4357 C.3     1  UNL1        0.1636
     23 O         140.3491  148.2412  153.2657 O.3     1  UNL1       -0.3501
     24 C         141.0142  146.8985  153.1964 C.3     1  UNL1        0.1636
     25 C         140.8064  145.9010  154.2972 C.3     1  UNL1        0.1243
     26 C         136.1041  141.7791  154.7848 C.3     1  UNL1        0.1408
     27 N         132.3311  140.1760  156.6408 N.3     1  UNL1       -0.1565
     28 C         133.6677  139.7076  157.1349 C.3     1  UNL1        0.1128
     29 C         134.9254  140.2420  156.5162 C.3     1  UNL1        0.0918
     30 N         134.8465  141.2448  155.4034 N.3     1  UNL1       -0.2637
     31 C         133.5098  141.7131  154.9093 C.3     1  UNL1        0.0918
     32 C         132.2522  141.1787  155.5280 C.3     1  UNL1        0.1128
     33 C         129.8159  139.1072  157.8781 C.3     1  UNL1        0.1960
     34 S         131.0735  139.6416  157.2594 S.O2    1  UNL1        0.0457
     35 O         130.2598  140.5693  156.4066 O.2     1  UNL1       -0.1572
     36 O         131.8871  138.7139  158.1123 O.2     1  UNL1       -0.1572
@<TRIPOS>BOND
     1    33    34    1
     2    34    35    2
     3    34    36    2
     4    34    27    1
     5    27    28    1
     6    28    29    1
     7    29    30    1
     8    30    26    1
     9    26     1    1
    10     1     2   ar
    11     2     3   ar
    12     3     4   ar
    13     4    20    1
    14    20    21    1
    15    21    22    1
    16    22    23    1
    17    23    24    1
    18    24    25    1
    19     4     5   ar
    20     5     6   ar
    21     6    11    1
    22    11    12   ar
    23    12    13   ar
    24    13    14   ar
    25    14    15    1
    26    14    16   ar
    27    16    17   ar
    28     6     7   ar
    29     7     8    1
    30     7     9   ar
    31     9    10   ar
    32    30    31    1
    33    31    32    1
    34    32    27    1
    35    10     1   ar
    36     9     3   ar
    37    25    20    1
    38    17    11   ar
    39    15    18    1
    40    15    19    1
@<TRIPOS>MOLECULE
*****
 36 40 0 0 0
SMALL
GASTEIGER

@<TRIPOS>ATOM
      1 C         139.2364  139.7736  163.0743 C.ar    1  UNL1        0.1770
      2 N         140.7121  140.0307  163.1519 N.ar    1  UNL1       -0.2060
      3 C         141.2981  139.7810  161.7939 C.ar    1  UNL1        0.1977
      4 C         142.7019  139.8752  161.2738 C.ar    1  UNL1        0.1681
      5 N         142.9920  139.5578  159.8367 N.ar    1  UNL1       -0.2250
      6 C         141.8785  139.1464  158.9198 C.ar    1  UNL1        0.1142
      7 C         140.4748  139.0523  159.4400 C.ar    1  UNL1        0.1592
      8 CL        139.3612  138.6408  158.5231 Cl      1  UNL1       -0.0596
      9 N         140.1846  139.3696  160.8770 N.ar    1  UNL1       -0.1962
     10 N         138.9103  139.3650  161.6684 N.ar    1  UNL1       -0.1465
     11 C         142.1687  138.8291  157.4827 C.ar    1  UNL1        0.0585
     12 C         142.5600  137.4364  157.0864 C.ar    1  UNL1        0.1049
     13 N         142.8502  137.1191  155.6493 N.ar    1  UNL1       -0.2124
     14 C         142.7489  138.1946  154.6086 C.ar    1  UNL1        0.2137
     15 N         143.0390  137.8773  153.1715 N.pl3   1  UNL1       -0.3274
     16 N         142.3575  139.5873  155.0050 N.ar    1  UNL1       -0.2124
     17 C         142.0674  139.9046  156.4420 C.ar    1  UNL1        0.1049
     18 H         143.2959  136.9632  152.9114 H       1  UNL1        0.1452
     19 H         142.9725  138.5832  152.4885 H       1  UNL1        0.1452
     20 N         143.8155  140.2866  162.1906 N.pl3   1  UNL1       -0.2857
     21 C         144.2067  139.4040  163.3386 C.3     1  UNL1        0.1243
     22 C         145.3204  139.8156  164.2554 C.3     1  UNL1        0.1636
     23 O         146.0427  141.1097  164.0241 O.3     1  UNL1       -0.3501
     24 C         145.6515  141.9923  162.8761 C.3     1  UNL1        0.1636
     25 C         144.5379  141.5807  161.9594 C.3     1  UNL1        0.1243
     26 C         138.2584  139.9024  164.2043 C.3     1  UNL1        0.1408
     27 N         139.7294  140.7942  168.3626 N.3     1  UNL1       -0.1565
     28 C         140.0683  141.7205  167.2324 C.3     1  UNL1        0.1128
     29 C         139.5779  141.4231  165.8463 C.3     1  UNL1        0.0918
     30 N         138.7487  140.1997  165.5904 N.3     1  UNL1       -0.2637
     31 C         138.4098  139.2735  166.7207 C.3     1  UNL1        0.0918
     32 C         138.9002  139.5708  168.1067 C.3     1  UNL1        0.1128
     33 C         140.7100  141.3886  171.1347 C.3     1  UNL1        0.1960
     34 S         140.2197  141.0915  169.7487 S.O2    1  UNL1        0.0457
     35 O         140.1508  142.5614  169.4578 O.2     1  UNL1       -0.1572
     36 O         140.2886  139.6216  170.0395 O.2     1  UNL1       -0.1572
@<TRIPOS>BOND
     1    33    34    1
     2    34    35    2
     3    34    36    2
     4    34    27    1
     5    27    28    1
     6    28    29    1
     7    29    30    1
     8    30    26    1
     9    26     1    1
    10     1     2   ar
    11     2     3   ar
    12     3     4   ar
    13     4    20    1
    14    20    21    1
    15    21    22    1
    16    22    23    1
    17    23    24    1
    18    24    25    1
    19     4     5   ar
    20     5     6   ar
    21     6    11    1
    22    11    12   ar
    23    12    13   ar
    24    13    14   ar
    25    14    15    1
    26    14    16   ar
    27    16    17   ar
    28     6     7   ar
    29     7     8    1
    30     7     9   ar
    31     9    10   ar
    32    30    31    1
    33    31    32    1
    34    32    27    1
    35    10     1   ar
    36     9     3   ar
    37    25    20    1
    38    17    11   ar
    39    15    18    1
    40    15    19    1
@<TRIPOS>MOLECULE
*****
 36 40 0 0 0
SMALL
GASTEIGER

@<TRIPOS>ATOM
      1 C         142.3657  137.7899  158.0687 C.ar    1  UNL1        0.1770
      2 N         141.3743  138.9090  157.9472 N.ar    1  UNL1       -0.2060
      3 C         140.9100  139.2687  159.3274 C.ar    1  UNL1        0.1977
      4 C         139.9368  140.2970  159.8228 C.ar    1  UNL1        0.1681
      5 N         139.6679  140.4284  161.2927 N.ar    1  UNL1       -0.2250
      6 C         140.3723  139.5316  162.2671 C.ar    1  UNL1        0.1142
      7 C         141.3455  138.5033  161.7717 C.ar    1  UNL1        0.1592
      8 CL        142.0499  137.6065  162.7462 Cl      1  UNL1       -0.0596
      9 N         141.6144  138.3719  160.3019 N.ar    1  UNL1       -0.1962
     10 N         142.5141  137.4579  159.5239 N.ar    1  UNL1       -0.1465
     11 C         140.1035  139.6631  163.7370 C.ar    1  UNL1        0.0585
     12 C         138.9639  138.9136  164.3610 C.ar    1  UNL1        0.1049
     13 N         138.6950  139.0450  165.8309 N.ar    1  UNL1       -0.2124
     14 C         139.5660  139.9260  166.6767 C.ar    1  UNL1        0.2137
     15 N         139.2972  140.0575  168.1466 N.pl3   1  UNL1       -0.3274
     16 N         140.7056  140.6755  166.0527 N.ar    1  UNL1       -0.2124
     17 C         140.9744  140.5440  164.5828 C.ar    1  UNL1        0.1049
     18 H         138.5492  139.5655  168.5561 H       1  UNL1        0.1452
     19 H         139.8688  140.6356  168.7017 H       1  UNL1        0.1452
     20 N         139.2323  141.1938  158.8484 N.pl3   1  UNL1       -0.2857
     21 C         139.7750  142.5623  158.5610 C.3     1  UNL1        0.1243
     22 C         139.0705  143.4591  157.5866 C.3     1  UNL1        0.1636
     23 O         137.8233  142.9874  156.8996 O.3     1  UNL1       -0.3501
     24 C         137.2806  141.6189  157.1870 C.3     1  UNL1        0.1636
     25 C         137.9851  140.7221  158.1614 C.3     1  UNL1        0.1243
     26 C         143.0829  137.1203  156.9340 C.3     1  UNL1        0.1408
     27 N         142.0963  132.8667  155.8461 N.3     1  UNL1       -0.1565
     28 C         141.4081  133.9994  155.1437 C.3     1  UNL1        0.1128
     29 C         141.7370  135.4173  155.5064 C.3     1  UNL1        0.0918
     30 N         142.7540  135.7025  156.5714 N.3     1  UNL1       -0.2637
     31 C         143.4422  134.5697  157.2738 C.3     1  UNL1        0.0918
     32 C         143.1134  133.1519  156.9111 C.3     1  UNL1        0.1128
     33 C         141.4386  130.0310  155.1209 C.3     1  UNL1        0.1960
     34 S         141.7675  131.4488  155.4835 S.O2    1  UNL1        0.0457
     35 O         142.7155  130.9593  156.5379 O.2     1  UNL1       -0.1572
     36 O         140.8195  131.9383  154.4292 O.2     1  UNL1       -0.1572
@<TRIPOS>BOND
     1    33    34    1
     2    34    35    2
     3    34    36    2
     4    34    27    1
     5    27    28    1
     6    28    29    1
     7    29    30    1
     8    30    26    1
     9    26     1    1
    10     1     2   ar
    11     2     3   ar
    12     3     4   ar
    13     4    20    1
    14    20    21    1
    15    21    22    1
    16    22    23    1
    17    23    24    1
    18    24    25    1
    19     4     5   ar
    20     5     6   ar
    21     6    11    1
    22    11    12   ar
    23    12    13   ar
    24    13    14   ar
    25    14    15    1
    26    14    16   ar
    27    16    17   ar
    28     6     7   ar
    29     7     8    1
    30     7     9   ar
    31     9    10   ar
    32    30    31    1
    33    31    32    1
    34    32    27    1
    35    10     1   ar
    36     9     3   ar
    37    25    20    1
    38    17    11   ar
    39    15    18    1
    40    15    19    1
