@<TRIPOS>MOLECULE
*****
 35 39 0 0 0
SMALL
GASTEIGER

@<TRIPOS>ATOM
      1 C         137.8113  141.1976  161.3375 C.3     1  UNL1        0.2588
      2 O         138.3889  141.6622  158.8473 O.2     1  UNL1       -0.2708
      3 C         138.6051  141.9420  160.3050 C.2     1  UNL1        0.2689
      4 N         139.6151  142.9663  160.7303 N.am    1  UNL1       -0.2664
      5 H         139.7569  143.1500  161.6871 H       1  UNL1        0.1564
      6 C         140.4088  143.7107  159.6980 C.ar    1  UNL1        0.1342
      7 C         141.7102  143.1508  159.2051 C.ar    1  UNL1        0.0345
      8 C         142.5039  143.8952  158.1727 C.ar    1  UNL1        0.0045
      9 C         141.9963  145.1995  157.6332 C.ar    1  UNL1        0.0208
     10 C         140.6949  145.7595  158.1261 C.ar    1  UNL1        0.1003
     11 N         139.9012  145.0150  159.1585 N.ar    1  UNL1       -0.2290
     12 C         137.6651  139.7079  161.2407 C.3     1  UNL1        0.1261
     13 N         138.7349  138.8120  161.7910 N.3     1  UNL1       -0.2650
     14 C         138.7776  137.7151  162.8134 C.3     1  UNL1        0.1033
     15 C         140.2478  137.5449  162.5693 C.3     1  UNL1        0.1423
     16 O         141.3176  136.6490  163.1196 O.3     1  UNL1       -0.3816
     17 C         140.2051  138.6417  161.5470 C.3     1  UNL1        0.1033
     18 H         140.9327  136.0564  163.7842 H       1  UNL1        0.2105
     19 O         137.1638  141.9430  162.4667 O.3     1  UNL1       -0.4529
     20 C         138.0057  142.7337  163.4238 C.ar    1  UNL1        0.2312
     21 N         138.1905  144.2081  163.2186 N.ar    1  UNL1       -0.1892
     22 C         139.0324  144.9987  164.1757 C.ar    1  UNL1        0.2029
     23 N         139.6895  144.3151  165.3379 N.ar    1  UNL1       -0.2046
     24 C         139.5047  142.8407  165.5431 C.ar    1  UNL1        0.1715
     25 C         138.6628  142.0501  164.5860 C.ar    1  UNL1        0.1098
     26 C         138.6620  140.6207  165.0411 C.ar    1  UNL1        0.1283
     27 N         139.5034  140.5280  166.2794 N.ar    1  UNL1       -0.1619
     28 N         140.0242  141.9001  166.5896 N.ar    1  UNL1       -0.2111
     29 C         140.9092  142.2671  167.7438 C.ar    1  UNL1        0.0949
     30 C         140.3401  143.0016  168.9214 C.ar    1  UNL1        0.0201
     31 C         141.2251  143.3686  170.0755 C.ar    1  UNL1        0.0016
     32 C         142.6792  143.0010  170.0522 C.ar    1  UNL1        0.0010
     33 C         143.2482  142.2665  168.8747 C.ar    1  UNL1        0.0129
     34 C         142.3633  141.8995  167.7205 C.ar    1  UNL1        0.0753
     35 CL        142.9324  141.1650  166.5430 Cl      1  UNL1       -0.0807
@<TRIPOS>BOND
     1     2     3    2
     2     3     4   am
     3     4     6    1
     4     6     7   ar
     5     7     8   ar
     6     8     9   ar
     7     9    10   ar
     8    10    11   ar
     9     3     1    1
    10     1    12    1
    11    12    13    1
    12    13    14    1
    13    14    15    1
    14    15    16    1
    15    15    17    1
    16     1    19    1
    17    19    20    1
    18    20    21   ar
    19    21    22   ar
    20    22    23   ar
    21    23    24   ar
    22    24    25   ar
    23    25    26   ar
    24    26    27   ar
    25    27    28   ar
    26    28    29    1
    27    29    30   ar
    28    30    31   ar
    29    31    32   ar
    30    32    33   ar
    31    33    34   ar
    32    34    35    1
    33    11     6   ar
    34    17    13    1
    35    25    20   ar
    36    34    29   ar
    37    28    24   ar
    38     4     5    1
    39    16    18    1
@<TRIPOS>MOLECULE
*****
 35 39 0 0 0
SMALL
GASTEIGER

@<TRIPOS>ATOM
      1 C         142.0868  139.5915  167.5609 C.3     1  UNL1        0.2588
      2 O         139.5606  140.1953  167.6261 O.2     1  UNL1       -0.2708
      3 C         140.9329  140.4081  167.0591 C.2     1  UNL1        0.2689
      4 N         141.1513  141.4376  165.9902 N.am    1  UNL1       -0.2664
      5 H         142.0520  141.5773  165.6180 H       1  UNL1        0.1564
      6 C         139.9975  142.2542  165.4883 C.ar    1  UNL1        0.1342
      7 C         139.8949  143.7071  165.8466 C.ar    1  UNL1        0.0345
      8 C         138.7411  144.5237  165.3448 C.ar    1  UNL1        0.0045
      9 C         137.6898  143.8873  164.4846 C.ar    1  UNL1        0.0208
     10 C         137.7924  142.4344  164.1263 C.ar    1  UNL1        0.1003
     11 N         138.9463  141.6178  164.6282 N.ar    1  UNL1       -0.2290
     12 C         142.4917  139.6722  169.0029 C.3     1  UNL1        0.1261
     13 N         142.7042  141.0094  169.6486 N.3     1  UNL1       -0.2650
     14 C         142.1533  141.7019  170.8598 C.3     1  UNL1        0.1033
     15 C         143.0047  142.9003  170.5617 C.3     1  UNL1        0.1423
     16 O         143.2172  144.2375  171.2074 O.3     1  UNL1       -0.3816
     17 C         143.5556  142.2078  169.3506 C.3     1  UNL1        0.1033
     18 H         142.6585  144.3076  171.9972 H       1  UNL1        0.2105
     19 O         142.8357  138.6943  166.6206 O.3     1  UNL1       -0.4529
     20 C         143.0745  139.1247  165.2037 C.ar    1  UNL1        0.2312
     21 N         144.0708  140.2058  164.9061 N.ar    1  UNL1       -0.1892
     22 C         144.3097  140.6362  163.4891 C.ar    1  UNL1        0.2029
     23 N         143.5522  139.9855  162.3698 N.ar    1  UNL1       -0.2046
     24 C         142.5559  138.9045  162.6675 C.ar    1  UNL1        0.1715
     25 C         142.3170  138.4741  164.0844 C.ar    1  UNL1        0.1098
     26 C         141.2802  137.3901  164.0711 C.ar    1  UNL1        0.1283
     27 N         140.8782  137.1507  162.6459 N.ar    1  UNL1       -0.1619
     28 N         141.6667  138.0866  161.7785 N.ar    1  UNL1       -0.2111
     29 C         141.5809  138.1870  160.2843 C.ar    1  UNL1        0.0949
     30 C         142.7553  137.7948  159.4376 C.ar    1  UNL1        0.0201
     31 C         142.6696  137.8952  157.9434 C.ar    1  UNL1        0.0016
     32 C         141.4094  138.3878  157.2959 C.ar    1  UNL1        0.0010
     33 C         140.2350  138.7799  158.1426 C.ar    1  UNL1        0.0129
     34 C         140.3207  138.6795  159.6368 C.ar    1  UNL1        0.0753
     35 CL        139.1462  139.0717  160.4834 Cl      1  UNL1       -0.0807
@<TRIPOS>BOND
     1     2     3    2
     2     3     4   am
     3     4     6    1
     4     6     7   ar
     5     7     8   ar
     6     8     9   ar
     7     9    10   ar
     8    10    11   ar
     9     3     1    1
    10     1    12    1
    11    12    13    1
    12    13    14    1
    13    14    15    1
    14    15    16    1
    15    15    17    1
    16     1    19    1
    17    19    20    1
    18    20    21   ar
    19    21    22   ar
    20    22    23   ar
    21    23    24   ar
    22    24    25   ar
    23    25    26   ar
    24    26    27   ar
    25    27    28   ar
    26    28    29    1
    27    29    30   ar
    28    30    31   ar
    29    31    32   ar
    30    32    33   ar
    31    33    34   ar
    32    34    35    1
    33    11     6   ar
    34    17    13    1
    35    25    20   ar
    36    34    29   ar
    37    28    24   ar
    38     4     5    1
    39    16    18    1
@<TRIPOS>MOLECULE
*****
 35 39 0 0 0
SMALL
GASTEIGER

@<TRIPOS>ATOM
      1 C         141.5083  143.8471  160.5654 C.3     1  UNL1        0.2588
      2 O         139.6378  143.7544  158.7646 O.2     1  UNL1       -0.2708
      3 C         140.9120  144.3511  159.2845 C.2     1  UNL1        0.2689
      4 N         141.5900  145.4518  158.5237 N.am    1  UNL1       -0.2664
      5 H         142.4263  145.8434  158.8649 H       1  UNL1        0.1564
      6 C         140.9938  145.9557  157.2429 C.ar    1  UNL1        0.1342
      7 C         141.6548  145.6422  155.9334 C.ar    1  UNL1        0.0345
      8 C         141.0586  146.1461  154.6526 C.ar    1  UNL1        0.0045
      9 C         139.8013  146.9637  154.6812 C.ar    1  UNL1        0.0208
     10 C         139.1402  147.2773  155.9907 C.ar    1  UNL1        0.1003
     11 N         139.7365  146.7733  157.2715 N.ar    1  UNL1       -0.2290
     12 C         142.1285  142.4824  160.6180 C.3     1  UNL1        0.1261
     13 N         143.4156  142.2716  161.3590 N.3     1  UNL1       -0.2650
     14 C         144.5692  143.1465  161.7513 C.3     1  UNL1        0.1033
     15 C         145.2357  141.9735  162.4069 C.3     1  UNL1        0.1423
     16 O         146.5228  141.7627  163.1479 O.3     1  UNL1       -0.3816
     17 C         144.0822  141.0987  162.0147 C.3     1  UNL1        0.1033
     18 H         147.0102  142.6001  163.1941 H       1  UNL1        0.2105
     19 O         141.4842  144.7079  161.7936 O.3     1  UNL1       -0.4529
     20 C         140.5594  144.3730  162.9262 C.ar    1  UNL1        0.2312
     21 N         139.0985  144.6964  162.8223 N.ar    1  UNL1       -0.1892
     22 C         138.1738  144.3615  163.9548 C.ar    1  UNL1        0.2029
     23 N         138.7101  143.7031  165.1913 N.ar    1  UNL1       -0.2046
     24 C         140.1711  143.3797  165.2952 C.ar    1  UNL1        0.1715
     25 C         141.0958  143.7146  164.1627 C.ar    1  UNL1        0.1098
     26 C         142.4783  143.2790  164.5487 C.ar    1  UNL1        0.1283
     27 N         142.4080  142.6749  165.9198 N.ar    1  UNL1       -0.1619
     28 N         140.9821  142.7371  166.3812 N.ar    1  UNL1       -0.2111
     29 C         140.4590  142.2434  167.6975 C.ar    1  UNL1        0.0949
     30 C         140.4806  143.1424  168.8980 C.ar    1  UNL1        0.0201
     31 C         139.9575  142.6487  170.2143 C.ar    1  UNL1        0.0016
     32 C         139.4127  141.2559  170.3301 C.ar    1  UNL1        0.0010
     33 C         139.3910  140.3570  169.1296 C.ar    1  UNL1        0.0129
     34 C         139.9141  140.8506  167.8133 C.ar    1  UNL1        0.0753
     35 CL        139.8924  139.9516  166.6128 Cl      1  UNL1       -0.0807
@<TRIPOS>BOND
     1     2     3    2
     2     3     4   am
     3     4     6    1
     4     6     7   ar
     5     7     8   ar
     6     8     9   ar
     7     9    10   ar
     8    10    11   ar
     9     3     1    1
    10     1    12    1
    11    12    13    1
    12    13    14    1
    13    14    15    1
    14    15    16    1
    15    15    17    1
    16     1    19    1
    17    19    20    1
    18    20    21   ar
    19    21    22   ar
    20    22    23   ar
    21    23    24   ar
    22    24    25   ar
    23    25    26   ar
    24    26    27   ar
    25    27    28   ar
    26    28    29    1
    27    29    30   ar
    28    30    31   ar
    29    31    32   ar
    30    32    33   ar
    31    33    34   ar
    32    34    35    1
    33    11     6   ar
    34    17    13    1
    35    25    20   ar
    36    34    29   ar
    37    28    24   ar
    38     4     5    1
    39    16    18    1
@<TRIPOS>MOLECULE
*****
 35 39 0 0 0
SMALL
GASTEIGER

@<TRIPOS>ATOM
      1 C         139.2661  138.2869  161.6482 C.3     1  UNL1        0.2588
      2 O         139.1142  138.7115  159.0895 O.2     1  UNL1       -0.2708
      3 C         139.9373  138.4577  160.3175 C.2     1  UNL1        0.2689
      4 N         141.4315  138.3746  160.2151 N.am    1  UNL1       -0.2664
      5 H         141.9716  138.2081  161.0211 H       1  UNL1        0.1564
      6 C         142.1026  138.5454  158.8845 C.ar    1  UNL1        0.1342
      7 C         142.4945  139.9141  158.4123 C.ar    1  UNL1        0.0345
      8 C         143.1656  140.0849  157.0818 C.ar    1  UNL1        0.0045
      9 C         143.4450  138.8869  156.2234 C.ar    1  UNL1        0.0208
     10 C         143.0531  137.5181  156.6956 C.ar    1  UNL1        0.1003
     11 N         142.3819  137.3474  158.0262 N.ar    1  UNL1       -0.2290
     12 C         137.9400  138.9378  161.9083 C.3     1  UNL1        0.1261
     13 N         137.8493  140.4294  162.0387 N.3     1  UNL1       -0.2650
     14 C         138.2149  141.5945  161.1675 C.3     1  UNL1        0.1033
     15 C         137.7211  142.5387  162.2232 C.3     1  UNL1        0.1423
     16 O         137.6305  144.0303  162.3536 O.3     1  UNL1       -0.3816
     17 C         137.3556  141.3737  163.0944 C.3     1  UNL1        0.1033
     18 H         137.9814  144.4470  161.5510 H       1  UNL1        0.2105
     19 O         139.9211  137.4652  162.7186 O.3     1  UNL1       -0.4529
     20 C         140.8385  138.1183  163.7096 C.ar    1  UNL1        0.2312
     21 N         142.3144  138.1667  163.4467 N.ar    1  UNL1       -0.1892
     22 C         143.2317  138.8198  164.4377 C.ar    1  UNL1        0.2029
     23 N         142.6729  139.4245  165.6915 N.ar    1  UNL1       -0.2046
     24 C         141.1970  139.3762  165.9544 C.ar    1  UNL1        0.1715
     25 C         140.2797  138.7231  164.9634 C.ar    1  UNL1        0.1098
     26 C         138.8790  138.8267  165.4900 C.ar    1  UNL1        0.1283
     27 N         138.9305  139.5439  166.8064 N.ar    1  UNL1       -0.1619
     28 N         140.3631  139.8835  167.0934 N.ar    1  UNL1       -0.2111
     29 C         140.8725  140.6039  168.3065 C.ar    1  UNL1        0.0949
     30 C         141.3430  139.8250  169.4989 C.ar    1  UNL1        0.0201
     31 C         141.8524  140.5454  170.7120 C.ar    1  UNL1        0.0016
     32 C         141.8913  142.0448  170.7326 C.ar    1  UNL1        0.0010
     33 C         141.4208  142.8236  169.5402 C.ar    1  UNL1        0.0129
     34 C         140.9114  142.1032  168.3271 C.ar    1  UNL1        0.0753
     35 CL        140.4409  142.8822  167.1347 Cl      1  UNL1       -0.0807
@<TRIPOS>BOND
     1     2     3    2
     2     3     4   am
     3     4     6    1
     4     6     7   ar
     5     7     8   ar
     6     8     9   ar
     7     9    10   ar
     8    10    11   ar
     9     3     1    1
    10     1    12    1
    11    12    13    1
    12    13    14    1
    13    14    15    1
    14    15    16    1
    15    15    17    1
    16     1    19    1
    17    19    20    1
    18    20    21   ar
    19    21    22   ar
    20    22    23   ar
    21    23    24   ar
    22    24    25   ar
    23    25    26   ar
    24    26    27   ar
    25    27    28   ar
    26    28    29    1
    27    29    30   ar
    28    30    31   ar
    29    31    32   ar
    30    32    33   ar
    31    33    34   ar
    32    34    35    1
    33    11     6   ar
    34    17    13    1
    35    25    20   ar
    36    34    29   ar
    37    28    24   ar
    38     4     5    1
    39    16    18    1
@<TRIPOS>MOLECULE
*****
 35 39 0 0 0
SMALL
GASTEIGER

@<TRIPOS>ATOM
      1 C         144.0115  140.1257  164.6035 C.3     1  UNL1        0.2588
      2 O         142.8618  139.4600  166.8363 O.2     1  UNL1       -0.2708
      3 C         143.3626  140.5177  165.8979 C.2     1  UNL1        0.2689
      4 N         143.2144  141.9673  166.2538 N.am    1  UNL1       -0.2664
      5 H         143.5431  142.6614  165.6378 H       1  UNL1        0.1564
      6 C         142.5655  142.3593  167.5480 C.ar    1  UNL1        0.1342
      7 C         141.0836  142.5842  167.6062 C.ar    1  UNL1        0.0345
      8 C         140.4347  142.9762  168.9005 C.ar    1  UNL1        0.0045
      9 C         141.2678  143.1433  170.1367 C.ar    1  UNL1        0.0208
     10 C         142.7497  142.9184  170.0786 C.ar    1  UNL1        0.1003
     11 N         143.3986  142.5264  168.7842 N.ar    1  UNL1       -0.2290
     12 C         144.8186  141.1296  163.8350 C.3     1  UNL1        0.1261
     13 N         144.1323  142.2600  163.1270 N.3     1  UNL1       -0.2650
     14 C         144.2505  143.7552  163.1523 C.3     1  UNL1        0.1033
     15 C         143.1618  143.8586  162.1258 C.3     1  UNL1        0.1423
     16 O         142.4755  144.9890  161.4178 O.3     1  UNL1       -0.3816
     17 C         143.0435  142.3636  162.1004 C.3     1  UNL1        0.1033
     18 H         142.8479  145.8326  161.7187 H       1  UNL1        0.2105
     19 O         143.8533  138.7298  164.0778 O.3     1  UNL1       -0.4529
     20 C         142.7178  138.4003  163.1546 C.ar    1  UNL1        0.2312
     21 N         141.4156  137.9082  163.7133 N.ar    1  UNL1       -0.1892
     22 C         140.2802  137.5787  162.7902 C.ar    1  UNL1        0.2029
     23 N         140.4469  137.7413  161.3084 N.ar    1  UNL1       -0.2046
     24 C         141.7491  138.2333  160.7497 C.ar    1  UNL1        0.1715
     25 C         142.8845  138.5628  161.6728 C.ar    1  UNL1        0.1098
     26 C         144.0420  139.0242  160.8377 C.ar    1  UNL1        0.1283
     27 N         143.6219  138.9798  159.3984 N.ar    1  UNL1       -0.1619
     28 N         142.2048  138.4910  159.3440 N.ar    1  UNL1       -0.2111
     29 C         141.3870  138.2944  158.1021 C.ar    1  UNL1        0.0949
     30 C         140.2076  139.1812  157.8324 C.ar    1  UNL1        0.0201
     31 C         139.3898  138.9846  156.5904 C.ar    1  UNL1        0.0016
     32 C         139.7513  137.9012  155.6180 C.ar    1  UNL1        0.0010
     33 C         140.9307  137.0145  155.8877 C.ar    1  UNL1        0.0129
     34 C         141.7485  137.2110  157.1297 C.ar    1  UNL1        0.0753
     35 CL        142.9279  136.3242  157.3992 Cl      1  UNL1       -0.0807
@<TRIPOS>BOND
     1     2     3    2
     2     3     4   am
     3     4     6    1
     4     6     7   ar
     5     7     8   ar
     6     8     9   ar
     7     9    10   ar
     8    10    11   ar
     9     3     1    1
    10     1    12    1
    11    12    13    1
    12    13    14    1
    13    14    15    1
    14    15    16    1
    15    15    17    1
    16     1    19    1
    17    19    20    1
    18    20    21   ar
    19    21    22   ar
    20    22    23   ar
    21    23    24   ar
    22    24    25   ar
    23    25    26   ar
    24    26    27   ar
    25    27    28   ar
    26    28    29    1
    27    29    30   ar
    28    30    31   ar
    29    31    32   ar
    30    32    33   ar
    31    33    34   ar
    32    34    35    1
    33    11     6   ar
    34    17    13    1
    35    25    20   ar
    36    34    29   ar
    37    28    24   ar
    38     4     5    1
    39    16    18    1
@<TRIPOS>MOLECULE
*****
 35 39 0 0 0
SMALL
GASTEIGER

@<TRIPOS>ATOM
      1 C         139.0333  140.4352  166.0697 C.3     1  UNL1        0.2588
      2 O         140.0528  142.6498  166.9677 O.2     1  UNL1       -0.2708
      3 C         140.0502  141.5331  165.9663 C.2     1  UNL1        0.2689
      4 N         141.0644  141.5143  164.8613 N.am    1  UNL1       -0.2664
      5 H         141.0627  140.7814  164.2040 H       1  UNL1        0.1564
      6 C         142.0812  142.6122  164.7578 C.ar    1  UNL1        0.1342
      7 C         141.7625  143.8595  163.9879 C.ar    1  UNL1        0.0345
      8 C         142.7793  144.9573  163.8844 C.ar    1  UNL1        0.0045
      9 C         144.1149  144.8079  164.5508 C.ar    1  UNL1        0.0208
     10 C         144.4336  143.5606  165.3206 C.ar    1  UNL1        0.1003
     11 N         143.4167  142.4628  165.4241 N.ar    1  UNL1       -0.2290
     12 C         139.1451  139.4096  167.1586 C.3     1  UNL1        0.1261
     13 N         139.5861  139.8194  168.5325 N.3     1  UNL1       -0.2650
     14 C         140.9057  139.9098  169.2400 C.3     1  UNL1        0.1033
     15 C         140.2097  140.3989  170.4755 C.3     1  UNL1        0.1423
     16 O         140.6507  140.8087  171.8494 O.3     1  UNL1       -0.3816
     17 C         138.8902  140.3085  169.7680 C.3     1  UNL1        0.1033
     18 H         141.6147  140.7251  171.9179 H       1  UNL1        0.2105
     19 O         137.9047  140.3629  165.0843 O.3     1  UNL1       -0.4529
     20 C         138.1933  140.1503  163.6277 C.ar    1  UNL1        0.2312
     21 N         138.4669  138.7689  163.1112 N.ar    1  UNL1       -0.1892
     22 C         138.7555  138.5564  161.6547 C.ar    1  UNL1        0.2029
     23 N         138.7705  139.7252  160.7147 N.ar    1  UNL1       -0.2046
     24 C         138.4969  141.1066  161.2312 C.ar    1  UNL1        0.1715
     25 C         138.2083  141.3191  162.6877 C.ar    1  UNL1        0.1098
     26 C         137.9771  142.7852  162.9054 C.ar    1  UNL1        0.1283
     27 N         138.1227  143.4787  161.5833 N.ar    1  UNL1       -0.1619
     28 N         138.4440  142.4412  160.5486 N.ar    1  UNL1       -0.2111
     29 C         138.6723  142.6940  159.0878 C.ar    1  UNL1        0.0949
     30 C         137.6262  142.3031  158.0865 C.ar    1  UNL1        0.0201
     31 C         137.8545  142.5559  156.6257 C.ar    1  UNL1        0.0016
     32 C         139.1290  143.1997  156.1662 C.ar    1  UNL1        0.0010
     33 C         140.1751  143.5906  157.1675 C.ar    1  UNL1        0.0129
     34 C         139.9468  143.3378  158.6283 C.ar    1  UNL1        0.0753
     35 CL        140.9930  143.7288  159.6296 Cl      1  UNL1       -0.0807
@<TRIPOS>BOND
     1     2     3    2
     2     3     4   am
     3     4     6    1
     4     6     7   ar
     5     7     8   ar
     6     8     9   ar
     7     9    10   ar
     8    10    11   ar
     9     3     1    1
    10     1    12    1
    11    12    13    1
    12    13    14    1
    13    14    15    1
    14    15    16    1
    15    15    17    1
    16     1    19    1
    17    19    20    1
    18    20    21   ar
    19    21    22   ar
    20    22    23   ar
    21    23    24   ar
    22    24    25   ar
    23    25    26   ar
    24    26    27   ar
    25    27    28   ar
    26    28    29    1
    27    29    30   ar
    28    30    31   ar
    29    31    32   ar
    30    32    33   ar
    31    33    34   ar
    32    34    35    1
    33    11     6   ar
    34    17    13    1
    35    25    20   ar
    36    34    29   ar
    37    28    24   ar
    38     4     5    1
    39    16    18    1
@<TRIPOS>MOLECULE
*****
 35 39 0 0 0
SMALL
GASTEIGER

@<TRIPOS>ATOM
      1 C         139.1734  140.3003  166.0115 C.3     1  UNL1        0.2588
      2 O         141.0021  142.1106  166.3706 O.2     1  UNL1       -0.2708
      3 C         140.5095  140.8847  165.6603 C.2     1  UNL1        0.2689
      4 N         141.3530  140.2432  164.5987 N.am    1  UNL1       -0.2664
      5 H         141.0297  139.4387  164.1324 H       1  UNL1        0.1564
      6 C         142.6891  140.8276  164.2474 C.ar    1  UNL1        0.1342
      7 C         143.9408  140.0384  164.4930 C.ar    1  UNL1        0.0345
      8 C         145.2769  140.6227  164.1418 C.ar    1  UNL1        0.0045
      9 C         145.3613  141.9963  163.5449 C.ar    1  UNL1        0.0208
     10 C         144.1095  142.7855  163.2993 C.ar    1  UNL1        0.1003
     11 N         142.7734  142.2011  163.6506 N.ar    1  UNL1       -0.2290
     12 C         139.0461  139.3686  167.1801 C.3     1  UNL1        0.1261
     13 N         139.5250  139.7961  168.5358 N.3     1  UNL1       -0.2650
     14 C         138.8639  140.3050  169.7824 C.3     1  UNL1        0.1033
     15 C         140.2022  140.4006  170.4530 C.3     1  UNL1        0.1423
     16 O         140.6811  140.8281  171.8087 O.3     1  UNL1       -0.3816
     17 C         140.8632  139.8917  169.2065 C.3     1  UNL1        0.1033
     18 H         139.9224  141.0984  172.3492 H       1  UNL1        0.2105
     19 O         137.9646  140.6477  165.1941 O.3     1  UNL1       -0.4529
     20 C         138.0403  141.7420  164.1709 C.ar    1  UNL1        0.2312
     21 N         137.8141  143.1675  164.5791 N.ar    1  UNL1       -0.1892
     22 C         137.8898  144.2616  163.5559 C.ar    1  UNL1        0.2029
     23 N         138.1918  143.9303  162.1244 N.ar    1  UNL1       -0.2046
     24 C         138.4180  142.5048  161.7162 C.ar    1  UNL1        0.1715
     25 C         138.3423  141.4106  162.7394 C.ar    1  UNL1        0.1098
     26 C         138.6089  140.1077  162.0455 C.ar    1  UNL1        0.1283
     27 N         138.8493  140.3967  160.5934 N.ar    1  UNL1       -0.1619
     28 N         138.7314  141.8782  160.3899 N.ar    1  UNL1       -0.2111
     29 C         138.8976  142.6054  159.0885 C.ar    1  UNL1        0.0949
     30 C         137.9148  142.3873  157.9765 C.ar    1  UNL1        0.0201
     31 C         138.0811  143.1145  156.6752 C.ar    1  UNL1        0.0016
     32 C         139.2301  144.0599  156.4858 C.ar    1  UNL1        0.0010
     33 C         140.2129  144.2780  157.5978 C.ar    1  UNL1        0.0129
     34 C         140.0467  143.5508  158.8991 C.ar    1  UNL1        0.0753
     35 CL        141.0295  143.7690  160.0110 Cl      1  UNL1       -0.0807
@<TRIPOS>BOND
     1     2     3    2
     2     3     4   am
     3     4     6    1
     4     6     7   ar
     5     7     8   ar
     6     8     9   ar
     7     9    10   ar
     8    10    11   ar
     9     3     1    1
    10     1    12    1
    11    12    13    1
    12    13    14    1
    13    14    15    1
    14    15    16    1
    15    15    17    1
    16     1    19    1
    17    19    20    1
    18    20    21   ar
    19    21    22   ar
    20    22    23   ar
    21    23    24   ar
    22    24    25   ar
    23    25    26   ar
    24    26    27   ar
    25    27    28   ar
    26    28    29    1
    27    29    30   ar
    28    30    31   ar
    29    31    32   ar
    30    32    33   ar
    31    33    34   ar
    32    34    35    1
    33    11     6   ar
    34    17    13    1
    35    25    20   ar
    36    34    29   ar
    37    28    24   ar
    38     4     5    1
    39    16    18    1
@<TRIPOS>MOLECULE
*****
 35 39 0 0 0
SMALL
GASTEIGER

@<TRIPOS>ATOM
      1 C         141.5256  144.1595  160.6776 C.3     1  UNL1        0.2588
      2 O         141.9701  141.7779  159.7393 O.2     1  UNL1       -0.2708
      3 C         142.1856  143.2608  159.6742 C.2     1  UNL1        0.2689
      4 N         143.0612  143.8452  158.6056 N.am    1  UNL1       -0.2664
      5 H         143.2027  144.8186  158.5628 H       1  UNL1        0.1564
      6 C         143.7212  142.9467  157.6022 C.ar    1  UNL1        0.1342
      7 C         142.9710  142.5094  156.3791 C.ar    1  UNL1        0.0345
      8 C         143.6310  141.6109  155.3756 C.ar    1  UNL1        0.0045
      9 C         145.0413  141.1495  155.5953 C.ar    1  UNL1        0.0208
     10 C         145.7916  141.5867  156.8184 C.ar    1  UNL1        0.1003
     11 N         145.1315  142.4853  157.8218 N.ar    1  UNL1       -0.2290
     12 C         140.0535  144.4323  160.5862 C.3     1  UNL1        0.1261
     13 N         139.0810  143.5518  161.3135 N.3     1  UNL1       -0.2650
     14 C         138.1255  143.7424  162.4541 C.3     1  UNL1        0.1033
     15 C         137.7056  142.3067  162.3422 C.3     1  UNL1        0.1423
     16 O         136.7331  141.4263  163.0696 O.3     1  UNL1       -0.3816
     17 C         138.6610  142.1162  161.2017 C.3     1  UNL1        0.1033
     18 H         136.2926  141.9376  163.7663 H       1  UNL1        0.2105
     19 O         142.3378  144.7853  161.7725 O.3     1  UNL1       -0.4529
     20 C         143.0248  143.9186  162.7858 C.ar    1  UNL1        0.2312
     21 N         144.4187  143.4270  162.5305 N.ar    1  UNL1       -0.1892
     22 C         145.1056  142.5603  163.5439 C.ar    1  UNL1        0.2029
     23 N         144.3986  142.1852  164.8125 N.ar    1  UNL1       -0.2046
     24 C         143.0047  142.6768  165.0678 C.ar    1  UNL1        0.1715
     25 C         142.3178  143.5435  164.0545 C.ar    1  UNL1        0.1098
     26 C         140.9518  143.8754  164.5781 C.ar    1  UNL1        0.1283
     27 N         140.7946  143.2138  165.9151 N.ar    1  UNL1       -0.1619
     28 N         142.0633  142.4730  166.2177 N.ar    1  UNL1       -0.2111
     29 C         142.3418  141.6695  167.4534 C.ar    1  UNL1        0.0949
     30 C         143.0500  142.3012  168.6150 C.ar    1  UNL1        0.0201
     31 C         143.3285  141.4977  169.8507 C.ar    1  UNL1        0.0016
     32 C         142.8988  140.0624  169.9247 C.ar    1  UNL1        0.0010
     33 C         142.1907  139.4308  168.7630 C.ar    1  UNL1        0.0129
     34 C         141.9122  140.2343  167.5274 C.ar    1  UNL1        0.0753
     35 CL        141.2040  139.6025  166.3658 Cl      1  UNL1       -0.0807
@<TRIPOS>BOND
     1     2     3    2
     2     3     4   am
     3     4     6    1
     4     6     7   ar
     5     7     8   ar
     6     8     9   ar
     7     9    10   ar
     8    10    11   ar
     9     3     1    1
    10     1    12    1
    11    12    13    1
    12    13    14    1
    13    14    15    1
    14    15    16    1
    15    15    17    1
    16     1    19    1
    17    19    20    1
    18    20    21   ar
    19    21    22   ar
    20    22    23   ar
    21    23    24   ar
    22    24    25   ar
    23    25    26   ar
    24    26    27   ar
    25    27    28   ar
    26    28    29    1
    27    29    30   ar
    28    30    31   ar
    29    31    32   ar
    30    32    33   ar
    31    33    34   ar
    32    34    35    1
    33    11     6   ar
    34    17    13    1
    35    25    20   ar
    36    34    29   ar
    37    28    24   ar
    38     4     5    1
    39    16    18    1
@<TRIPOS>MOLECULE
*****
 35 39 0 0 0
SMALL
GASTEIGER

@<TRIPOS>ATOM
      1 C         142.1689  139.3212  166.1762 C.3     1  UNL1        0.2588
      2 O         142.3314  141.5997  164.9384 O.2     1  UNL1       -0.2708
      3 C         141.5090  140.5515  165.6276 C.2     1  UNL1        0.2689
      4 N         140.0268  140.7337  165.7684 N.am    1  UNL1       -0.2664
      5 H         139.4871  140.0458  166.2209 H       1  UNL1        0.1564
      6 C         139.3669  141.9640  165.2200 C.ar    1  UNL1        0.1342
      7 C         139.6301  143.3000  165.8491 C.ar    1  UNL1        0.0345
      8 C         138.9702  144.5303  165.3006 C.ar    1  UNL1        0.0045
      9 C         138.0471  144.4246  164.1230 C.ar    1  UNL1        0.0208
     10 C         137.7839  143.0886  163.4939 C.ar    1  UNL1        0.1003
     11 N         138.4439  141.8583  164.0424 N.ar    1  UNL1       -0.2290
     12 C         142.9499  139.3956  167.4546 C.3     1  UNL1        0.1261
     13 N         142.2561  139.7444  168.7380 N.3     1  UNL1       -0.2650
     14 C         140.8252  139.8644  169.1716 C.3     1  UNL1        0.1033
     15 C         141.2751  140.2378  170.5530 C.3     1  UNL1        0.1423
     16 O         140.5814  140.5867  171.8364 O.3     1  UNL1       -0.3816
     17 C         142.7060  140.1179  170.1194 C.3     1  UNL1        0.1033
     18 H         139.6210  140.5526  171.7044 H       1  UNL1        0.2105
     19 O         142.0478  138.0164  165.4461 O.3     1  UNL1       -0.4529
     20 C         141.3676  137.9648  164.1102 C.ar    1  UNL1        0.2312
     21 N         139.8903  137.7177  164.0299 N.ar    1  UNL1       -0.1892
     22 C         139.2101  137.6661  162.6940 C.ar    1  UNL1        0.2029
     23 N         140.0072  137.8616  161.4384 N.ar    1  UNL1       -0.2046
     24 C         141.4845  138.1087  161.5188 C.ar    1  UNL1        0.1715
     25 C         142.1647  138.1603  162.8546 C.ar    1  UNL1        0.1098
     26 C         143.6238  138.4193  162.6222 C.ar    1  UNL1        0.1283
     27 N         143.8453  138.5278  161.1426 N.ar    1  UNL1       -0.1619
     28 N         142.5232  138.3358  160.4607 N.ar    1  UNL1       -0.2111
     29 C         142.2820  138.3657  158.9805 C.ar    1  UNL1        0.0949
     30 C         142.6838  137.1963  158.1313 C.ar    1  UNL1        0.0201
     31 C         142.4426  137.2262  156.6512 C.ar    1  UNL1        0.0016
     32 C         141.7997  138.4255  156.0201 C.ar    1  UNL1        0.0010
     33 C         141.3979  139.5949  156.8692 C.ar    1  UNL1        0.0129
     34 C         141.6390  139.5650  158.3494 C.ar    1  UNL1        0.0753
     35 CL        141.2372  140.7344  159.1985 Cl      1  UNL1       -0.0807
@<TRIPOS>BOND
     1     2     3    2
     2     3     4   am
     3     4     6    1
     4     6     7   ar
     5     7     8   ar
     6     8     9   ar
     7     9    10   ar
     8    10    11   ar
     9     3     1    1
    10     1    12    1
    11    12    13    1
    12    13    14    1
    13    14    15    1
    14    15    16    1
    15    15    17    1
    16     1    19    1
    17    19    20    1
    18    20    21   ar
    19    21    22   ar
    20    22    23   ar
    21    23    24   ar
    22    24    25   ar
    23    25    26   ar
    24    26    27   ar
    25    27    28   ar
    26    28    29    1
    27    29    30   ar
    28    30    31   ar
    29    31    32   ar
    30    32    33   ar
    31    33    34   ar
    32    34    35    1
    33    11     6   ar
    34    17    13    1
    35    25    20   ar
    36    34    29   ar
    37    28    24   ar
    38     4     5    1
    39    16    18    1
