@<TRIPOS>MOLECULE
*****
 27 30 0 0 0
SMALL
GASTEIGER

@<TRIPOS>ATOM
      1 C         137.5326  139.8833  161.1161 C.3     1  UNL1        0.1366
      2 N         138.0070  140.8038  162.2014 N.ar    1  UNL1       -0.2630
      3 C         138.0952  142.2986  162.1136 C.ar    1  UNL1        0.3331
      4 O         137.7246  143.1355  160.9252 O.2     1  UNL1       -0.2462
      5 N         138.6191  142.8096  163.4230 N.ar    1  UNL1       -0.2694
      6 C         138.8547  141.6306  164.3199 C.ar    1  UNL1        0.0986
      7 C         139.3648  141.5257  165.7266 C.ar    1  UNL1        0.0224
      8 C         139.4965  140.1811  166.3783 C.ar    1  UNL1        0.0267
      9 C         139.1182  138.9414  165.6233 C.ar    1  UNL1        0.1011
     10 N         138.6081  139.0463  164.2166 N.ar    1  UNL1       -0.2251
     11 C         138.4763  140.3909  163.5649 C.ar    1  UNL1        0.1633
     12 C         140.0066  140.0762  167.7850 C.ar    1  UNL1        0.0309
     13 C         139.1833  140.1982  169.0329 C.ar    1  UNL1        0.0070
     14 C         140.0974  140.0282  170.2099 C.ar    1  UNL1        0.0109
     15 C         141.4859  139.8012  169.6895 C.ar    1  UNL1        0.1009
     16 S         141.4297  139.8308  168.1908 S.2     1  UNL1       -0.0831
     17 C         142.7146  139.5828  170.5216 C.3     1  UNL1        0.4241
     18 F         143.9434  139.3645  171.3537 F       1  UNL1       -0.1654
     19 F         142.6041  138.1039  170.2968 F       1  UNL1       -0.1654
     20 F         142.8252  141.0617  170.7464 F       1  UNL1       -0.1654
     21 C         138.8644  144.2472  163.7738 C.3     1  UNL1        0.1956
     22 C         140.0361  144.9740  163.1830 C.2     1  UNL1        0.2489
     23 O         139.8145  146.0434  162.1547 O.2     1  UNL1       -0.2728
     24 N         141.4294  144.6314  163.6204 N.am    1  UNL1       -0.2778
     25 C         142.8024  145.1225  163.2687 C.3     1  UNL1        0.0952
     26 C         143.3999  144.1470  164.2391 C.3     1  UNL1        0.0430
     27 C         142.0268  143.6559  164.5907 C.3     1  UNL1        0.0952
@<TRIPOS>BOND
     1     1     2    1
     2     2     3   ar
     3     3     4    2
     4     3     5   ar
     5     5    21    1
     6    21    22    1
     7    22    23    2
     8    22    24   am
     9    24    25    1
    10    25    26    1
    11    26    27    1
    12     5     6   ar
    13     6     7   ar
    14     7     8   ar
    15     8    12    1
    16    12    13   ar
    17    13    14   ar
    18    14    15   ar
    19    15    17    1
    20    17    18    1
    21    17    19    1
    22    17    20    1
    23    15    16   ar
    24     8     9   ar
    25     9    10   ar
    26    10    11   ar
    27    11     2   ar
    28    27    24    1
    29    11     6   ar
    30    16    12   ar
@<TRIPOS>MOLECULE
*****
 27 30 0 0 0
SMALL
GASTEIGER

@<TRIPOS>ATOM
      1 C         142.5268  137.6205  160.9207 C.3     1  UNL1        0.1366
      2 N         141.6737  138.2583  161.9768 N.ar    1  UNL1       -0.2630
      3 C         140.2182  138.5973  161.8485 C.ar    1  UNL1        0.3331
      4 O         139.3602  138.3581  160.6416 O.2     1  UNL1       -0.2462
      5 N         139.7713  139.2175  163.1391 N.ar    1  UNL1       -0.2694
      6 C         140.9506  139.2617  164.0650 C.ar    1  UNL1        0.0986
      7 C         141.1057  139.7653  165.4694 C.ar    1  UNL1        0.0224
      8 C         142.4366  139.6760  166.1554 C.ar    1  UNL1        0.0267
      9 C         143.6124  139.0831  165.4371 C.ar    1  UNL1        0.1011
     10 N         143.4573  138.5796  164.0327 N.ar    1  UNL1       -0.2251
     11 C         142.1264  138.6689  163.3467 C.ar    1  UNL1        0.1633
     12 C         142.5918  140.1795  167.5599 C.ar    1  UNL1        0.0309
     13 C         142.4813  139.3563  168.8089 C.ar    1  UNL1        0.0070
     14 C         142.7059  140.2627  169.9828 C.ar    1  UNL1        0.0109
     15 C         142.9553  141.6461  169.4592 C.ar    1  UNL1        0.1009
     16 S         142.8848  141.5947  167.9618 S.2     1  UNL1       -0.0831
     17 C         143.2274  142.8666  170.2877 C.3     1  UNL1        0.4241
     18 F         143.4995  144.0871  171.1161 F       1  UNL1       -0.1654
     19 F         141.7541  143.0501  170.5013 F       1  UNL1       -0.1654
     20 F         144.7007  142.6832  170.0740 F       1  UNL1       -0.1654
     21 C         138.3879  139.7074  163.4494 C.3     1  UNL1        0.1956
     22 C         137.8801  140.9697  162.8178 C.2     1  UNL1        0.2489
     23 O         137.2127  140.9209  161.4754 O.2     1  UNL1       -0.2728
     24 N         138.0396  142.2809  163.5288 N.am    1  UNL1       -0.2778
     25 C         137.6726  143.7033  163.2256 C.3     1  UNL1        0.0952
     26 C         138.2652  144.1351  164.5342 C.3     1  UNL1        0.0430
     27 C         138.6321  142.7127  164.8374 C.3     1  UNL1        0.0952
@<TRIPOS>BOND
     1     1     2    1
     2     2     3   ar
     3     3     4    2
     4     3     5   ar
     5     5    21    1
     6    21    22    1
     7    22    23    2
     8    22    24   am
     9    24    25    1
    10    25    26    1
    11    26    27    1
    12     5     6   ar
    13     6     7   ar
    14     7     8   ar
    15     8    12    1
    16    12    13   ar
    17    13    14   ar
    18    14    15   ar
    19    15    17    1
    20    17    18    1
    21    17    19    1
    22    17    20    1
    23    15    16   ar
    24     8     9   ar
    25     9    10   ar
    26    10    11   ar
    27    11     2   ar
    28    27    24    1
    29    11     6   ar
    30    16    12   ar
@<TRIPOS>MOLECULE
*****
 27 30 0 0 0
SMALL
GASTEIGER

@<TRIPOS>ATOM
      1 C         144.0751  138.5984  161.6276 C.3     1  UNL1        0.1366
      2 N         143.8040  139.9449  162.2303 N.ar    1  UNL1       -0.2630
      3 C         143.8183  141.2561  161.5018 C.ar    1  UNL1        0.3331
      4 O         144.1062  141.4509  160.0426 O.2     1  UNL1       -0.2462
      5 N         143.4942  142.3382  162.4887 N.ar    1  UNL1       -0.2694
      6 C         143.2796  141.6959  163.8271 C.ar    1  UNL1        0.0986
      7 C         142.9346  142.2668  165.1706 C.ar    1  UNL1        0.0224
      8 C         142.7810  141.3585  166.3544 C.ar    1  UNL1        0.0267
      9 C         142.9725  139.8794  166.1947 C.ar    1  UNL1        0.1011
     10 N         143.3175  139.3085  164.8512 N.ar    1  UNL1       -0.2251
     11 C         143.4711  140.2167  163.6674 C.ar    1  UNL1        0.1633
     12 C         142.4359  141.9294  167.6980 C.ar    1  UNL1        0.0309
     13 C         143.4112  142.2954  168.7773 C.ar    1  UNL1        0.0070
     14 C         142.6330  142.8266  169.9444 C.ar    1  UNL1        0.0109
     15 C         141.1768  142.7890  169.5865 C.ar    1  UNL1        0.1009
     16 S         141.0550  142.2344  168.1981 S.2     1  UNL1       -0.0831
     17 C         140.0417  143.2286  170.4630 C.3     1  UNL1        0.4241
     18 F         138.9067  143.6683  171.3395 F       1  UNL1       -0.1654
     19 F         139.7441  141.7967  170.7958 F       1  UNL1       -0.1654
     20 F         140.3394  144.6606  170.1301 F       1  UNL1       -0.1654
     21 C         143.4011  143.8051  162.1897 C.3     1  UNL1        0.1956
     22 C         142.1813  144.3566  161.5128 C.2     1  UNL1        0.2489
     23 O         142.2057  144.6440  160.0408 O.2     1  UNL1       -0.2728
     24 N         140.9371  144.6207  162.3080 N.am    1  UNL1       -0.2778
     25 C         139.5694  145.1499  161.9929 C.3     1  UNL1        0.0952
     26 C         139.1776  144.9942  163.4325 C.3     1  UNL1        0.0430
     27 C         140.5453  144.4650  163.7475 C.3     1  UNL1        0.0952
@<TRIPOS>BOND
     1     1     2    1
     2     2     3   ar
     3     3     4    2
     4     3     5   ar
     5     5    21    1
     6    21    22    1
     7    22    23    2
     8    22    24   am
     9    24    25    1
    10    25    26    1
    11    26    27    1
    12     5     6   ar
    13     6     7   ar
    14     7     8   ar
    15     8    12    1
    16    12    13   ar
    17    13    14   ar
    18    14    15   ar
    19    15    17    1
    20    17    18    1
    21    17    19    1
    22    17    20    1
    23    15    16   ar
    24     8     9   ar
    25     9    10   ar
    26    10    11   ar
    27    11     2   ar
    28    27    24    1
    29    11     6   ar
    30    16    12   ar
@<TRIPOS>MOLECULE
*****
 27 30 0 0 0
SMALL
GASTEIGER

@<TRIPOS>ATOM
      1 C         137.4275  140.0144  160.5898 C.3     1  UNL1        0.1366
      2 N         138.1588  141.0317  161.4145 N.ar    1  UNL1       -0.2630
      3 C         138.6288  142.3760  160.9432 C.ar    1  UNL1        0.3331
      4 O         138.4498  142.9390  159.5645 O.2     1  UNL1       -0.2462
      5 N         139.3090  143.0584  162.0928 N.ar    1  UNL1       -0.2694
      6 C         139.2595  142.1359  163.2746 C.ar    1  UNL1        0.0986
      7 C         139.7699  142.2746  164.6782 C.ar    1  UNL1        0.0224
      8 C         139.5694  141.1608  165.6626 C.ar    1  UNL1        0.0267
      9 C         138.8586  139.9082  165.2434 C.ar    1  UNL1        0.1011
     10 N         138.3482  139.7695  163.8398 N.ar    1  UNL1       -0.2251
     11 C         138.5487  140.8833  162.8554 C.ar    1  UNL1        0.1633
     12 C         140.0798  141.2994  167.0663 C.ar    1  UNL1        0.0309
     13 C         139.7102  140.4269  168.2291 C.ar    1  UNL1        0.0070
     14 C         140.4514  140.9232  169.4351 C.ar    1  UNL1        0.0109
     15 C         141.2791  142.1026  169.0176 C.ar    1  UNL1        0.1009
     16 S         141.0494  142.3350  167.5537 S.2     1  UNL1       -0.0831
     17 C         142.1785  142.9079  169.9078 C.3     1  UNL1        0.4241
     18 F         143.0779  143.7133  170.7980 F       1  UNL1       -0.1654
     19 F         141.1617  144.0103  169.9378 F       1  UNL1       -0.1654
     20 F         143.1952  141.8055  169.8779 F       1  UNL1       -0.1654
     21 C         139.9298  144.4236  162.0655 C.3     1  UNL1        0.1956
     22 C         141.3758  144.5829  161.6995 C.2     1  UNL1        0.2489
     23 O         141.7698  144.7731  160.2648 O.2     1  UNL1       -0.2728
     24 N         142.4278  144.5519  162.7684 N.am    1  UNL1       -0.2778
     25 C         143.9227  144.6726  162.7889 C.3     1  UNL1        0.0952
     26 C         143.9155  144.5081  164.2799 C.3     1  UNL1        0.0430
     27 C         142.4205  144.3873  164.2593 C.3     1  UNL1        0.0952
@<TRIPOS>BOND
     1     1     2    1
     2     2     3   ar
     3     3     4    2
     4     3     5   ar
     5     5    21    1
     6    21    22    1
     7    22    23    2
     8    22    24   am
     9    24    25    1
    10    25    26    1
    11    26    27    1
    12     5     6   ar
    13     6     7   ar
    14     7     8   ar
    15     8    12    1
    16    12    13   ar
    17    13    14   ar
    18    14    15   ar
    19    15    17    1
    20    17    18    1
    21    17    19    1
    22    17    20    1
    23    15    16   ar
    24     8     9   ar
    25     9    10   ar
    26    10    11   ar
    27    11     2   ar
    28    27    24    1
    29    11     6   ar
    30    16    12   ar
@<TRIPOS>MOLECULE
*****
 27 30 0 0 0
SMALL
GASTEIGER

@<TRIPOS>ATOM
      1 C         144.8083  142.4519  160.6010 C.3     1  UNL1        0.1366
      2 N         144.1794  141.4507  161.5240 N.ar    1  UNL1       -0.2630
      3 C         143.8765  140.0184  161.1969 C.ar    1  UNL1        0.3331
      4 O         144.1495  139.3359  159.8894 O.2     1  UNL1       -0.2462
      5 N         143.2528  139.3886  162.4070 N.ar    1  UNL1       -0.2694
      6 C         143.1702  140.4315  163.4819 C.ar    1  UNL1        0.0986
      7 C         142.6475  140.3854  164.8871 C.ar    1  UNL1        0.0224
      8 C         142.6974  141.6137  165.7466 C.ar    1  UNL1        0.0267
      9 C         143.2700  142.8882  165.2008 C.ar    1  UNL1        0.1011
     10 N         143.7927  142.9343  163.7956 N.ar    1  UNL1       -0.2251
     11 C         143.7428  141.7060  162.9362 C.ar    1  UNL1        0.1633
     12 C         142.1747  141.5676  167.1518 C.ar    1  UNL1        0.0309
     13 C         142.5300  140.5466  168.1917 C.ar    1  UNL1        0.0070
     14 C         141.7798  140.8824  169.4464 C.ar    1  UNL1        0.0109
     15 C         140.9607  142.1110  169.1820 C.ar    1  UNL1        0.1009
     16 S         141.2048  142.5344  167.7639 S.2     1  UNL1       -0.0831
     17 C         140.0564  142.7958  170.1635 C.3     1  UNL1        0.4241
     18 F         139.1521  143.4806  171.1449 F       1  UNL1       -0.1654
     19 F         140.8167  144.0745  169.9718 F       1  UNL1       -0.1654
     20 F         139.2961  141.5171  170.3552 F       1  UNL1       -0.1654
     21 C         142.7926  137.9656  162.5220 C.3     1  UNL1        0.1956
     22 C         141.4943  137.6500  163.2040 C.2     1  UNL1        0.2489
     23 O         141.4948  137.0925  164.5966 O.2     1  UNL1       -0.2728
     24 N         140.1956  137.8920  162.4935 N.am    1  UNL1       -0.2778
     25 C         138.7476  137.7067  162.8380 C.3     1  UNL1        0.0952
     26 C         138.3590  138.2342  161.4886 C.3     1  UNL1        0.0430
     27 C         139.8071  138.4196  161.1441 C.3     1  UNL1        0.0952
@<TRIPOS>BOND
     1     1     2    1
     2     2     3   ar
     3     3     4    2
     4     3     5   ar
     5     5    21    1
     6    21    22    1
     7    22    23    2
     8    22    24   am
     9    24    25    1
    10    25    26    1
    11    26    27    1
    12     5     6   ar
    13     6     7   ar
    14     7     8   ar
    15     8    12    1
    16    12    13   ar
    17    13    14   ar
    18    14    15   ar
    19    15    17    1
    20    17    18    1
    21    17    19    1
    22    17    20    1
    23    15    16   ar
    24     8     9   ar
    25     9    10   ar
    26    10    11   ar
    27    11     2   ar
    28    27    24    1
    29    11     6   ar
    30    16    12   ar
@<TRIPOS>MOLECULE
*****
 27 30 0 0 0
SMALL
GASTEIGER

@<TRIPOS>ATOM
      1 C         137.9694  138.0561  161.7624 C.3     1  UNL1        0.1366
      2 N         138.1459  139.3617  162.4795 N.ar    1  UNL1       -0.2630
      3 C         137.8299  140.7204  161.9279 C.ar    1  UNL1        0.3331
      4 O         137.2820  141.0120  160.5624 O.2     1  UNL1       -0.2462
      5 N         138.1581  141.7362  162.9817 N.ar    1  UNL1       -0.2694
      6 C         138.6769  141.0054  164.1845 C.ar    1  UNL1        0.0986
      7 C         139.1552  141.4867  165.5222 C.ar    1  UNL1        0.0224
      8 C         139.6259  140.5004  166.5496 C.ar    1  UNL1        0.0267
      9 C         139.6184  139.0329  166.2393 C.ar    1  UNL1        0.1011
     10 N         139.1401  138.5516  164.9016 N.ar    1  UNL1       -0.2251
     11 C         138.6693  139.5379  163.8742 C.ar    1  UNL1        0.1633
     12 C         140.1042  140.9816  167.8875 C.ar    1  UNL1        0.0309
     13 C         139.5119  140.6210  169.2175 C.ar    1  UNL1        0.0070
     14 C         140.3005  141.3245  170.2821 C.ar    1  UNL1        0.0109
     15 C         141.3802  142.1198  169.6100 C.ar    1  UNL1        0.1009
     16 S         141.2588  141.9079  168.1300 S.2     1  UNL1       -0.0831
     17 C         142.4017  142.9766  170.2972 C.3     1  UNL1        0.4241
     18 F         143.4233  143.8335  170.9844 F       1  UNL1       -0.1654
     19 F         141.4795  144.1555  170.1983 F       1  UNL1       -0.1654
     20 F         143.3239  141.7978  170.3961 F       1  UNL1       -0.1654
     21 C         137.9959  143.2220  162.8549 C.3     1  UNL1        0.1956
     22 C         138.9738  144.1429  163.5226 C.2     1  UNL1        0.2489
     23 O         138.5664  144.9110  164.7449 O.2     1  UNL1       -0.2728
     24 N         140.3592  144.2956  162.9680 N.am    1  UNL1       -0.2778
     25 C         141.5715  145.0932  163.3475 C.3     1  UNL1        0.0952
     26 C         142.3183  144.5116  162.1838 C.3     1  UNL1        0.0430
     27 C         141.1059  143.7141  161.8043 C.3     1  UNL1        0.0952
@<TRIPOS>BOND
     1     1     2    1
     2     2     3   ar
     3     3     4    2
     4     3     5   ar
     5     5    21    1
     6    21    22    1
     7    22    23    2
     8    22    24   am
     9    24    25    1
    10    25    26    1
    11    26    27    1
    12     5     6   ar
    13     6     7   ar
    14     7     8   ar
    15     8    12    1
    16    12    13   ar
    17    13    14   ar
    18    14    15   ar
    19    15    17    1
    20    17    18    1
    21    17    19    1
    22    17    20    1
    23    15    16   ar
    24     8     9   ar
    25     9    10   ar
    26    10    11   ar
    27    11     2   ar
    28    27    24    1
    29    11     6   ar
    30    16    12   ar
@<TRIPOS>MOLECULE
*****
 27 30 0 0 0
SMALL
GASTEIGER

@<TRIPOS>ATOM
      1 C         143.0028  137.6438  160.9343 C.3     1  UNL1        0.1366
      2 N         141.9510  138.3199  161.7629 N.ar    1  UNL1       -0.2630
      3 C         140.5755  138.7012  161.3018 C.ar    1  UNL1        0.3331
      4 O         140.0103  138.4734  159.9312 O.2     1  UNL1       -0.2462
      5 N         139.8645  139.3504  162.4521 N.ar    1  UNL1       -0.2694
      6 C         140.8006  139.3702  163.6240 C.ar    1  UNL1        0.0986
      7 C         140.6453  139.8859  165.0240 C.ar    1  UNL1        0.0224
      8 C         141.7795  139.7648  165.9979 C.ar    1  UNL1        0.0267
      9 C         143.0691  139.1279  165.5720 C.ar    1  UNL1        0.1011
     10 N         143.2244  138.6122  164.1721 N.ar    1  UNL1       -0.2251
     11 C         142.0901  138.7334  163.1981 C.ar    1  UNL1        0.1633
     12 C         141.6243  140.2805  167.3980 C.ar    1  UNL1        0.0309
     13 C         142.4556  139.8826  168.5814 C.ar    1  UNL1        0.0070
     14 C         141.9555  140.6409  169.7751 C.ar    1  UNL1        0.0109
     15 C         140.8151  141.5075  169.3294 C.ar    1  UNL1        0.1009
     16 S         140.6105  141.2848  167.8603 S.2     1  UNL1       -0.0831
     17 C         140.0193  142.4341  170.2000 C.3     1  UNL1        0.4241
     18 F         139.2234  143.3607  171.0706 F       1  UNL1       -0.1654
     19 F         141.1626  143.4049  170.2121 F       1  UNL1       -0.1654
     20 F         138.8759  141.4633  170.1880 F       1  UNL1       -0.1654
     21 C         138.4634  139.8857  162.4337 C.3     1  UNL1        0.1956
     22 C         138.2065  141.3001  162.0052 C.2     1  UNL1        0.2489
     23 O         138.1355  141.6406  160.5461 O.2     1  UNL1       -0.2728
     24 N         138.0205  142.3740  163.0358 N.am    1  UNL1       -0.2778
     25 C         137.7552  143.8497  162.9939 C.3     1  UNL1        0.0952
     26 C         137.7576  143.8926  164.4934 C.3     1  UNL1        0.0430
     27 C         138.0229  142.4169  164.5352 C.3     1  UNL1        0.0952
@<TRIPOS>BOND
     1     1     2    1
     2     2     3   ar
     3     3     4    2
     4     3     5   ar
     5     5    21    1
     6    21    22    1
     7    22    23    2
     8    22    24   am
     9    24    25    1
    10    25    26    1
    11    26    27    1
    12     5     6   ar
    13     6     7   ar
    14     7     8   ar
    15     8    12    1
    16    12    13   ar
    17    13    14   ar
    18    14    15   ar
    19    15    17    1
    20    17    18    1
    21    17    19    1
    22    17    20    1
    23    15    16   ar
    24     8     9   ar
    25     9    10   ar
    26    10    11   ar
    27    11     2   ar
    28    27    24    1
    29    11     6   ar
    30    16    12   ar
@<TRIPOS>MOLECULE
*****
 27 30 0 0 0
SMALL
GASTEIGER

@<TRIPOS>ATOM
      1 C         143.8179  142.3907  160.1257 C.3     1  UNL1        0.1366
      2 N         142.7989  141.9034  161.1128 N.ar    1  UNL1       -0.2630
      3 C         141.5808  141.0886  160.7931 C.ar    1  UNL1        0.3331
      4 O         141.1677  140.6180  159.4300 O.2     1  UNL1       -0.2462
      5 N         140.8484  140.8271  162.0757 N.ar    1  UNL1       -0.2694
      6 C         141.6138  141.4803  163.1881 C.ar    1  UNL1        0.0986
      7 C         141.3688  141.5552  164.6661 C.ar    1  UNL1        0.0224
      8 C         142.3293  142.2954  165.5489 C.ar    1  UNL1        0.0267
      9 C         143.5348  142.9606  164.9538 C.ar    1  UNL1        0.1011
     10 N         143.7799  142.8857  163.4759 N.ar    1  UNL1       -0.2251
     11 C         142.8193  142.1455  162.5931 C.ar    1  UNL1        0.1633
     12 C         142.0843  142.3703  167.0269 C.ar    1  UNL1        0.0309
     13 C         143.0787  142.0488  168.1029 C.ar    1  UNL1        0.0070
     14 C         142.4108  142.2597  169.4293 C.ar    1  UNL1        0.0109
     15 C         141.0036  142.7117  169.1732 C.ar    1  UNL1        0.1009
     16 S         140.8019  142.7801  167.6884 S.2     1  UNL1       -0.0831
     17 C         139.9783  143.0380  170.2182 C.3     1  UNL1        0.4241
     18 F         138.9530  143.3643  171.2633 F       1  UNL1       -0.1654
     19 F         139.6383  141.5821  170.3392 F       1  UNL1       -0.1654
     20 F         140.3184  144.4939  170.0973 F       1  UNL1       -0.1654
     21 C         139.5741  140.0490  162.2205 C.3     1  UNL1        0.1956
     22 C         139.5692  138.7512  162.9727 C.2     1  UNL1        0.2489
     23 O         140.1737  137.5246  162.3562 O.2     1  UNL1       -0.2728
     24 N         138.9597  138.6800  164.3415 N.am    1  UNL1       -0.2778
     25 C         138.7735  137.5991  165.3646 C.3     1  UNL1        0.0952
     26 C         138.0977  138.5794  166.2772 C.3     1  UNL1        0.0430
     27 C         138.2839  139.6602  165.2539 C.3     1  UNL1        0.0952
@<TRIPOS>BOND
     1     1     2    1
     2     2     3   ar
     3     3     4    2
     4     3     5   ar
     5     5    21    1
     6    21    22    1
     7    22    23    2
     8    22    24   am
     9    24    25    1
    10    25    26    1
    11    26    27    1
    12     5     6   ar
    13     6     7   ar
    14     7     8   ar
    15     8    12    1
    16    12    13   ar
    17    13    14   ar
    18    14    15   ar
    19    15    17    1
    20    17    18    1
    21    17    19    1
    22    17    20    1
    23    15    16   ar
    24     8     9   ar
    25     9    10   ar
    26    10    11   ar
    27    11     2   ar
    28    27    24    1
    29    11     6   ar
    30    16    12   ar
@<TRIPOS>MOLECULE
*****
 27 30 0 0 0
SMALL
GASTEIGER

@<TRIPOS>ATOM
      1 C         139.9651  137.9791  158.3525 C.3     1  UNL1        0.1366
      2 N         139.6641  138.7755  159.5874 N.ar    1  UNL1       -0.2630
      3 C         138.5974  139.8212  159.7239 C.ar    1  UNL1        0.3331
      4 O         137.6444  140.2541  158.6494 O.2     1  UNL1       -0.2462
      5 N         138.6510  140.3580  161.1235 N.ar    1  UNL1       -0.2694
      6 C         139.7508  139.6440  161.8521 C.ar    1  UNL1        0.0986
      7 C         140.2630  139.7582  163.2572 C.ar    1  UNL1        0.0224
      8 C         141.4013  138.8943  163.7130 C.ar    1  UNL1        0.0267
      9 C         142.0274  137.9162  162.7636 C.ar    1  UNL1        0.1011
     10 N         141.5153  137.8021  161.3584 N.ar    1  UNL1       -0.2251
     11 C         140.3769  138.6660  160.9027 C.ar    1  UNL1        0.1633
     12 C         141.9136  139.0084  165.1183 C.ar    1  UNL1        0.0309
     13 C         143.0691  138.2491  165.6999 C.ar    1  UNL1        0.0070
     14 C         143.2298  138.6733  167.1296 C.ar    1  UNL1        0.0109
     15 C         142.1737  139.6948  167.4317 C.ar    1  UNL1        0.1009
     16 S         141.3602  139.9018  166.1886 S.2     1  UNL1       -0.0831
     17 C         141.9673  140.3875  168.7460 C.3     1  UNL1        0.4241
     18 F         141.7609  141.0802  170.0604 F       1  UNL1       -0.1654
     19 F         140.7863  139.5059  169.0252 F       1  UNL1       -0.1654
     20 F         143.1483  141.2691  168.4669 F       1  UNL1       -0.1654
     21 C         137.7610  141.4219  161.6945 C.3     1  UNL1        0.1956
     22 C         138.2504  142.8366  161.7915 C.2     1  UNL1        0.2489
     23 O         138.5975  143.5972  160.5461 O.2     1  UNL1       -0.2728
     24 N         138.3925  143.4907  163.1339 N.am    1  UNL1       -0.2778
     25 C         138.8346  144.8412  163.6141 C.3     1  UNL1        0.0952
     26 C         138.5936  144.4156  165.0323 C.3     1  UNL1        0.0430
     27 C         138.1516  143.0651  164.5519 C.3     1  UNL1        0.0952
@<TRIPOS>BOND
     1     1     2    1
     2     2     3   ar
     3     3     4    2
     4     3     5   ar
     5     5    21    1
     6    21    22    1
     7    22    23    2
     8    22    24   am
     9    24    25    1
    10    25    26    1
    11    26    27    1
    12     5     6   ar
    13     6     7   ar
    14     7     8   ar
    15     8    12    1
    16    12    13   ar
    17    13    14   ar
    18    14    15   ar
    19    15    17    1
    20    17    18    1
    21    17    19    1
    22    17    20    1
    23    15    16   ar
    24     8     9   ar
    25     9    10   ar
    26    10    11   ar
    27    11     2   ar
    28    27    24    1
    29    11     6   ar
    30    16    12   ar
