@<TRIPOS>MOLECULE
*****
 35 39 0 0 0
SMALL
GASTEIGER

@<TRIPOS>ATOM
      1 C         137.9032  140.0856  161.9829 C.3     1  UNL1        0.0570
      2 C         137.6864  140.4376  163.4248 C.3     1  UNL1        0.0331
      3 C         137.6641  141.8757  163.8507 C.3     1  UNL1        0.0735
      4 N         137.8586  142.9619  162.8345 N.3     1  UNL1       -0.2711
      5 C         138.0753  142.6099  161.3926 C.3     1  UNL1        0.0735
      6 C         138.0976  141.1718  160.9668 C.3     1  UNL1        0.0331
      7 N         137.9255  138.6475  161.5571 N.3     1  UNL1       -0.2934
      8 H         137.5108  138.1088  162.3176 H       1  UNL1        0.1236
      9 C         139.2283  137.9858  161.2179 C.3     1  UNL1        0.1152
     10 O         145.9361  141.6615  162.7162 O.2     1  UNL1       -0.2707
     11 C         144.8987  140.6461  163.0940 C.2     1  UNL1        0.2718
     12 C         145.0597  139.8405  164.3490 C.3     1  UNL1        0.2898
     13 O         144.0223  138.8251  164.7268 O.3     1  UNL1       -0.4628
     14 C         142.8238  138.6153  163.8496 C.ar    1  UNL1        0.1708
     15 C         141.7864  137.5998  164.2274 C.ar    1  UNL1        0.0411
     16 C         140.5879  137.3900  163.3502 C.ar    1  UNL1        0.0193
     17 C         140.4268  138.1957  162.0951 C.ar    1  UNL1        0.0765
     18 N         141.4642  139.2111  161.7173 N.ar    1  UNL1       -0.2304
     19 C         142.6627  139.4209  162.5946 C.ar    1  UNL1        0.1682
     20 N         143.7002  140.4363  162.2168 N.am    1  UNL1       -0.2639
     21 H         143.5944  140.9650  161.3931 H       1  UNL1        0.1565
     22 C         137.8363  144.4000  163.2603 C.3     1  UNL1        0.0942
     23 C         138.9505  144.9509  164.0998 C.3     1  UNL1        0.1157
     24 N         140.3470  144.4310  163.9276 N.am    1  UNL1       -0.2515
     25 C         141.1307  144.7797  162.6971 C.2     1  UNL1        0.2740
     26 O         140.5179  145.6484  161.6388 O.2     1  UNL1       -0.2705
     27 C         142.5271  144.2598  162.5249 C.3     1  UNL1        0.2900
     28 O         143.1399  143.3911  163.5832 O.3     1  UNL1       -0.4643
     29 C         142.3562  143.0424  164.8137 C.ar    1  UNL1        0.1529
     30 C         142.9689  142.1738  165.8720 C.ar    1  UNL1        0.0405
     31 C         142.1852  141.8250  167.1025 C.ar    1  UNL1        0.0328
     32 C         140.7888  142.3449  167.2748 C.ar    1  UNL1        0.1416
     33 F         140.0051  141.9962  168.5053 F       1  UNL1       -0.2041
     34 C         140.1760  143.2136  166.2165 C.ar    1  UNL1        0.0476
     35 C         140.9597  143.5623  164.9859 C.ar    1  UNL1        0.0904
@<TRIPOS>BOND
     1    10    11    2
     2    11    12    1
     3    12    13    1
     4    13    14    1
     5    14    15   ar
     6    15    16   ar
     7    16    17   ar
     8    17     9    1
     9     9     7    1
    10     7     1    1
    11     1     2    1
    12     2     3    1
    13     3     4    1
    14     4    22    1
    15    22    23    1
    16    23    24    1
    17    24    25   am
    18    25    26    2
    19    25    27    1
    20    27    28    1
    21    28    29    1
    22    29    30   ar
    23    30    31   ar
    24    31    32   ar
    25    32    33    1
    26    32    34   ar
    27    34    35   ar
    28     4     5    1
    29     5     6    1
    30    17    18   ar
    31    18    19   ar
    32    19    20    1
    33    20    11   am
    34    19    14   ar
    35     6     1    1
    36    35    24    1
    37    35    29   ar
    38     7     8    1
    39    20    21    1
@<TRIPOS>MOLECULE
*****
 35 39 0 0 0
SMALL
GASTEIGER

@<TRIPOS>ATOM
      1 C         144.3301  139.7706  163.3316 C.3     1  UNL1        0.0570
      2 C         144.0494  139.5112  164.7821 C.3     1  UNL1        0.0331
      3 C         142.8401  138.7190  165.1821 C.3     1  UNL1        0.0735
      4 N         141.9114  138.1862  164.1315 N.3     1  UNL1       -0.2711
      5 C         142.1921  138.4456  162.6810 C.3     1  UNL1        0.0735
      6 C         143.4014  139.2378  162.2811 C.3     1  UNL1        0.0331
      7 N         145.5394  140.5628  162.9317 N.3     1  UNL1       -0.2934
      8 H         146.3476  140.0919  163.3385 H       1  UNL1        0.1236
      9 C         145.6462  142.0106  163.3095 C.3     1  UNL1        0.1152
     10 O         140.2930  145.4915  158.8400 O.2     1  UNL1       -0.2707
     11 C         140.8857  145.2319  160.1932 C.2     1  UNL1        0.2718
     12 C         140.2868  145.8729  161.4099 C.3     1  UNL1        0.2898
     13 O         140.8795  145.6133  162.7631 O.3     1  UNL1       -0.4628
     14 C         142.0712  144.7126  162.8997 C.ar    1  UNL1        0.1708
     15 C         142.6639  144.4530  164.2530 C.ar    1  UNL1        0.0411
     16 C         143.8555  143.5523  164.3896 C.ar    1  UNL1        0.0193
     17 C         144.4545  142.9112  163.1729 C.ar    1  UNL1        0.0765
     18 N         143.8618  143.1709  161.8196 N.ar    1  UNL1       -0.2304
     19 C         142.6701  144.0716  161.6831 C.ar    1  UNL1        0.1682
     20 N         142.0774  144.3312  160.3298 N.am    1  UNL1       -0.2639
     21 H         142.4705  143.9104  159.5313 H       1  UNL1        0.1565
     22 C         140.7021  137.3940  164.5314 C.3     1  UNL1        0.0942
     23 C         139.4407  138.1008  164.9302 C.3     1  UNL1        0.1157
     24 N         138.9827  139.3069  164.1648 N.am    1  UNL1       -0.2515
     25 C         138.2970  139.1393  162.8413 C.2     1  UNL1        0.2740
     26 O         138.0694  137.7656  162.2832 O.2     1  UNL1       -0.2705
     27 C         137.8390  140.3452  162.0759 C.3     1  UNL1        0.2900
     28 O         138.0666  141.7188  162.6340 O.3     1  UNL1       -0.4643
     29 C         138.7523  141.8864  163.9575 C.ar    1  UNL1        0.1529
     30 C         138.9800  143.2599  164.5156 C.ar    1  UNL1        0.0405
     31 C         139.6656  143.4275  165.8392 C.ar    1  UNL1        0.0328
     32 C         140.1237  142.2216  166.6046 C.ar    1  UNL1        0.1416
     33 F         140.8093  142.3892  167.9281 F       1  UNL1       -0.2041
     34 C         139.8960  140.8480  166.0465 C.ar    1  UNL1        0.0476
     35 C         139.2103  140.6804  164.7229 C.ar    1  UNL1        0.0904
@<TRIPOS>BOND
     1    10    11    2
     2    11    12    1
     3    12    13    1
     4    13    14    1
     5    14    15   ar
     6    15    16   ar
     7    16    17   ar
     8    17     9    1
     9     9     7    1
    10     7     1    1
    11     1     2    1
    12     2     3    1
    13     3     4    1
    14     4    22    1
    15    22    23    1
    16    23    24    1
    17    24    25   am
    18    25    26    2
    19    25    27    1
    20    27    28    1
    21    28    29    1
    22    29    30   ar
    23    30    31   ar
    24    31    32   ar
    25    32    33    1
    26    32    34   ar
    27    34    35   ar
    28     4     5    1
    29     5     6    1
    30    17    18   ar
    31    18    19   ar
    32    19    20    1
    33    20    11   am
    34    19    14   ar
    35     6     1    1
    36    35    24    1
    37    35    29   ar
    38     7     8    1
    39    20    21    1
@<TRIPOS>MOLECULE
*****
 35 39 0 0 0
SMALL
GASTEIGER

@<TRIPOS>ATOM
      1 C         142.3920  138.3690  162.4736 C.3     1  UNL1        0.0570
      2 C         142.9017  138.3696  163.8843 C.3     1  UNL1        0.0331
      3 C         143.9731  139.3361  164.2943 C.3     1  UNL1        0.0735
      4 N         144.5348  140.3020  163.2936 N.3     1  UNL1       -0.2711
      5 C         144.0251  140.3014  161.8828 C.3     1  UNL1        0.0735
      6 C         142.9538  139.3349  161.4728 C.3     1  UNL1        0.0331
      7 N         141.3207  137.4026  162.0636 N.3     1  UNL1       -0.2934
      8 H         141.6771  136.8936  161.2547 H       1  UNL1        0.1236
      9 C         139.9578  137.9071  161.6916 C.3     1  UNL1        0.1152
     10 O         138.4091  145.5360  162.0801 O.2     1  UNL1       -0.2707
     11 C         138.3340  144.1630  162.6795 C.2     1  UNL1        0.2718
     12 C         137.6674  143.9600  164.0078 C.3     1  UNL1        0.2898
     13 O         137.5923  142.5871  164.6073 O.3     1  UNL1       -0.4628
     14 C         138.1837  141.4171  163.8784 C.ar    1  UNL1        0.1708
     15 C         138.1085  140.0441  164.4778 C.ar    1  UNL1        0.0411
     16 C         138.6999  138.8741  163.7489 C.ar    1  UNL1        0.0193
     17 C         139.3665  139.0771  162.4205 C.ar    1  UNL1        0.0765
     18 N         139.4416  140.4500  161.8211 N.ar    1  UNL1       -0.2304
     19 C         138.8502  141.6200  162.5501 C.ar    1  UNL1        0.1682
     20 N         138.9253  142.9930  161.9506 N.am    1  UNL1       -0.2639
     21 H         139.3628  143.1262  161.0788 H       1  UNL1        0.1565
     22 C         145.6062  141.2684  163.7036 C.3     1  UNL1        0.0942
     23 C         145.2435  142.5176  164.4504 C.3     1  UNL1        0.1157
     24 N         143.8595  143.0848  164.3360 N.am    1  UNL1       -0.2515
     25 C         143.5015  143.9597  163.1713 C.2     1  UNL1        0.2740
     26 O         144.5274  144.2674  162.1211 O.2     1  UNL1       -0.2705
     27 C         142.1176  144.5269  163.0568 C.3     1  UNL1        0.2900
     28 O         141.0916  144.2191  164.1070 O.3     1  UNL1       -0.4643
     29 C         141.4497  143.3442  165.2717 C.ar    1  UNL1        0.1529
     30 C         140.4238  143.0365  166.3218 C.ar    1  UNL1        0.0405
     31 C         140.7818  142.1616  167.4865 C.ar    1  UNL1        0.0328
     32 C         142.1657  141.5945  167.6009 C.ar    1  UNL1        0.1416
     33 F         142.5237  140.7196  168.7656 F       1  UNL1       -0.2041
     34 C         143.1916  141.9022  166.5507 C.ar    1  UNL1        0.0476
     35 C         142.8336  142.7771  165.3861 C.ar    1  UNL1        0.0904
@<TRIPOS>BOND
     1    10    11    2
     2    11    12    1
     3    12    13    1
     4    13    14    1
     5    14    15   ar
     6    15    16   ar
     7    16    17   ar
     8    17     9    1
     9     9     7    1
    10     7     1    1
    11     1     2    1
    12     2     3    1
    13     3     4    1
    14     4    22    1
    15    22    23    1
    16    23    24    1
    17    24    25   am
    18    25    26    2
    19    25    27    1
    20    27    28    1
    21    28    29    1
    22    29    30   ar
    23    30    31   ar
    24    31    32   ar
    25    32    33    1
    26    32    34   ar
    27    34    35   ar
    28     4     5    1
    29     5     6    1
    30    17    18   ar
    31    18    19   ar
    32    19    20    1
    33    20    11   am
    34    19    14   ar
    35     6     1    1
    36    35    24    1
    37    35    29   ar
    38     7     8    1
    39    20    21    1
@<TRIPOS>MOLECULE
*****
 35 39 0 0 0
SMALL
GASTEIGER

@<TRIPOS>ATOM
      1 C         138.0789  141.4451  164.0630 C.3     1  UNL1        0.0570
      2 C         137.9323  141.7480  162.6013 C.3     1  UNL1        0.0331
      3 C         138.2860  143.1087  162.0782 C.3     1  UNL1        0.0735
      4 N         138.7862  144.1663  163.0168 N.3     1  UNL1       -0.2711
      5 C         138.9328  143.8633  164.4786 C.3     1  UNL1        0.0735
      6 C         138.5791  142.5027  165.0017 C.3     1  UNL1        0.0331
      7 N         137.7252  140.0845  164.5861 N.3     1  UNL1       -0.2934
      8 H         137.2689  140.2250  165.4874 H       1  UNL1        0.1236
      9 C         138.8003  139.0604  164.8000 C.3     1  UNL1        0.1152
     10 O         140.7244  141.0919  172.0747 O.2     1  UNL1       -0.2707
     11 C         141.1270  140.6323  170.7047 C.2     1  UNL1        0.2718
     12 C         142.5734  140.3904  170.3897 C.3     1  UNL1        0.2898
     13 O         142.9759  139.9309  169.0197 O.3     1  UNL1       -0.4628
     14 C         141.9320  139.7133  167.9648 C.ar    1  UNL1        0.1708
     15 C         142.3345  139.2538  166.5948 C.ar    1  UNL1        0.0411
     16 C         141.2907  139.0361  165.5399 C.ar    1  UNL1        0.0193
     17 C         139.8441  139.2780  165.8549 C.ar    1  UNL1        0.0765
     18 N         139.4416  139.7376  167.2249 N.ar    1  UNL1       -0.2304
     19 C         140.4856  139.9552  168.2798 C.ar    1  UNL1        0.1682
     20 N         140.0831  140.4147  169.6498 N.am    1  UNL1       -0.2639
     21 H         139.1337  140.5735  169.8566 H       1  UNL1        0.1565
     22 C         139.1399  145.5269  162.4938 C.3     1  UNL1        0.0942
     23 C         140.5704  145.8685  162.1989 C.3     1  UNL1        0.1157
     24 N         141.4183  144.9225  161.4012 N.am    1  UNL1       -0.2515
     25 C         141.1207  144.6907  159.9494 C.2     1  UNL1        0.2740
     26 O         139.9751  145.4049  159.2953 O.2     1  UNL1       -0.2705
     27 C         141.9685  143.7448  159.1517 C.3     1  UNL1        0.2900
     28 O         143.1140  143.0306  159.8058 O.3     1  UNL1       -0.4643
     29 C         143.4117  143.2624  161.2575 C.ar    1  UNL1        0.1529
     30 C         144.5571  142.5483  161.9116 C.ar    1  UNL1        0.0405
     31 C         144.8547  142.7801  163.3634 C.ar    1  UNL1        0.0328
     32 C         144.0069  143.7260  164.1611 C.ar    1  UNL1        0.1416
     33 F         144.3045  143.9577  165.6129 F       1  UNL1       -0.2041
     34 C         142.8614  144.4402  163.5070 C.ar    1  UNL1        0.0476
     35 C         142.5637  144.2084  162.0553 C.ar    1  UNL1        0.0904
@<TRIPOS>BOND
     1    10    11    2
     2    11    12    1
     3    12    13    1
     4    13    14    1
     5    14    15   ar
     6    15    16   ar
     7    16    17   ar
     8    17     9    1
     9     9     7    1
    10     7     1    1
    11     1     2    1
    12     2     3    1
    13     3     4    1
    14     4    22    1
    15    22    23    1
    16    23    24    1
    17    24    25   am
    18    25    26    2
    19    25    27    1
    20    27    28    1
    21    28    29    1
    22    29    30   ar
    23    30    31   ar
    24    31    32   ar
    25    32    33    1
    26    32    34   ar
    27    34    35   ar
    28     4     5    1
    29     5     6    1
    30    17    18   ar
    31    18    19   ar
    32    19    20    1
    33    20    11   am
    34    19    14   ar
    35     6     1    1
    36    35    24    1
    37    35    29   ar
    38     7     8    1
    39    20    21    1
@<TRIPOS>MOLECULE
*****
 35 39 0 0 0
SMALL
GASTEIGER

@<TRIPOS>ATOM
      1 C         144.6473  142.4512  162.1017 C.3     1  UNL1        0.0570
      2 C         143.9151  143.5665  162.7873 C.3     1  UNL1        0.0331
      3 C         142.9155  144.3865  162.0267 C.3     1  UNL1        0.0735
      4 N         142.6481  144.0913  160.5806 N.3     1  UNL1       -0.2711
      5 C         143.3803  142.9759  159.8950 C.3     1  UNL1        0.0735
      6 C         144.3799  142.1559  160.6555 C.3     1  UNL1        0.0331
      7 N         145.6468  141.6312  162.8622 N.3     1  UNL1       -0.2934
      8 H         146.1675  141.0883  162.1733 H       1  UNL1        0.1236
      9 C         145.1817  140.6662  163.9122 C.3     1  UNL1        0.1152
     10 O         137.7753  139.1533  165.8113 O.2     1  UNL1       -0.2707
     11 C         138.9840  138.8713  164.9689 C.2     1  UNL1        0.2718
     12 C         138.9326  137.8030  163.9172 C.3     1  UNL1        0.2898
     13 O         140.1413  137.5210  163.0749 O.3     1  UNL1       -0.4628
     14 C         141.4014  138.3073  163.2842 C.ar    1  UNL1        0.1708
     15 C         142.6101  138.0253  162.4419 C.ar    1  UNL1        0.0411
     16 C         143.8702  138.8115  162.6512 C.ar    1  UNL1        0.0193
     17 C         143.9216  139.8799  163.7029 C.ar    1  UNL1        0.0765
     18 N         142.7129  140.1619  164.5453 N.ar    1  UNL1       -0.2304
     19 C         141.4528  139.3756  164.3359 C.ar    1  UNL1        0.1682
     20 N         140.2441  139.6576  165.1782 N.am    1  UNL1       -0.2639
     21 H         140.2779  140.3588  165.8685 H       1  UNL1        0.1565
     22 C         141.6486  144.9113  159.8201 C.3     1  UNL1        0.0942
     23 C         140.2294  144.9966  160.2981 C.3     1  UNL1        0.1157
     24 N         139.4616  143.7428  160.5958 N.am    1  UNL1       -0.2515
     25 C         139.2612  142.7135  159.5232 C.2     1  UNL1        0.2740
     26 O         139.8287  142.9381  158.1529 O.2     1  UNL1       -0.2705
     27 C         138.4935  141.4598  159.8208 C.3     1  UNL1        0.2900
     28 O         137.9260  141.2352  161.1912 O.3     1  UNL1       -0.4643
     29 C         138.1264  142.2645  162.2638 C.ar    1  UNL1        0.1529
     30 C         137.5590  142.0400  163.6340 C.ar    1  UNL1        0.0405
     31 C         137.7593  143.0692  164.7066 C.ar    1  UNL1        0.0328
     32 C         138.5271  144.3230  164.4090 C.ar    1  UNL1        0.1416
     33 F         138.7274  145.3522  165.4816 F       1  UNL1       -0.2041
     34 C         139.0945  144.5475  163.0387 C.ar    1  UNL1        0.0476
     35 C         138.8942  143.5183  161.9661 C.ar    1  UNL1        0.0904
@<TRIPOS>BOND
     1    10    11    2
     2    11    12    1
     3    12    13    1
     4    13    14    1
     5    14    15   ar
     6    15    16   ar
     7    16    17   ar
     8    17     9    1
     9     9     7    1
    10     7     1    1
    11     1     2    1
    12     2     3    1
    13     3     4    1
    14     4    22    1
    15    22    23    1
    16    23    24    1
    17    24    25   am
    18    25    26    2
    19    25    27    1
    20    27    28    1
    21    28    29    1
    22    29    30   ar
    23    30    31   ar
    24    31    32   ar
    25    32    33    1
    26    32    34   ar
    27    34    35   ar
    28     4     5    1
    29     5     6    1
    30    17    18   ar
    31    18    19   ar
    32    19    20    1
    33    20    11   am
    34    19    14   ar
    35     6     1    1
    36    35    24    1
    37    35    29   ar
    38     7     8    1
    39    20    21    1
@<TRIPOS>MOLECULE
*****
 35 39 0 0 0
SMALL
GASTEIGER

@<TRIPOS>ATOM
      1 C         141.9114  138.1474  162.0489 C.3     1  UNL1        0.0570
      2 C         141.1045  139.2761  161.4790 C.3     1  UNL1        0.0331
      3 C         141.7921  140.4123  160.7815 C.3     1  UNL1        0.0735
      4 N         143.2867  140.4196  160.6540 N.3     1  UNL1       -0.2711
      5 C         144.0936  139.2908  161.2239 C.3     1  UNL1        0.0735
      6 C         143.4060  138.1548  161.9213 C.3     1  UNL1        0.0331
      7 N         141.2238  137.0113  162.7463 N.3     1  UNL1       -0.2934
      8 H         140.2468  137.0345  162.4542 H       1  UNL1        0.1236
      9 C         141.2261  136.9395  164.2447 C.3     1  UNL1        0.1152
     10 O         143.6962  142.6847  168.8966 O.2     1  UNL1       -0.2707
     11 C         142.5864  141.9991  168.1562 C.2     1  UNL1        0.2718
     12 C         141.1902  142.5428  168.2261 C.3     1  UNL1        0.2898
     13 O         140.0804  141.8571  167.4856 O.3     1  UNL1       -0.4628
     14 C         140.3668  140.6277  166.6754 C.ar    1  UNL1        0.1708
     15 C         139.2570  139.9421  165.9350 C.ar    1  UNL1        0.0411
     16 C         139.5434  138.7127  165.1248 C.ar    1  UNL1        0.0193
     17 C         140.9397  138.1689  165.0549 C.ar    1  UNL1        0.0765
     18 N         142.0495  138.8546  165.7953 N.ar    1  UNL1       -0.2304
     19 C         141.7630  140.0840  166.6056 C.ar    1  UNL1        0.1682
     20 N         142.8728  140.7697  167.3460 N.am    1  UNL1       -0.2639
     21 H         143.7892  140.4128  167.3002 H       1  UNL1        0.1565
     22 C         143.9743  141.5557  159.9565 C.3     1  UNL1        0.0942
     23 C         144.5572  142.6835  160.7554 C.3     1  UNL1        0.1157
     24 N         144.0710  142.9443  162.1503 N.am    1  UNL1       -0.2515
     25 C         144.8369  142.4091  163.3238 C.2     1  UNL1        0.2740
     26 O         146.0890  141.6132  163.1024 O.2     1  UNL1       -0.2705
     27 C         144.3508  142.6699  164.7187 C.3     1  UNL1        0.2900
     28 O         143.0987  143.4658  164.9401 O.3     1  UNL1       -0.4643
     29 C         142.3328  144.0009  163.7666 C.ar    1  UNL1        0.1529
     30 C         141.0808  144.7968  163.9879 C.ar    1  UNL1        0.0405
     31 C         140.3150  145.3319  162.8144 C.ar    1  UNL1        0.0328
     32 C         140.8011  145.0712  161.4196 C.ar    1  UNL1        0.1416
     33 F         140.0352  145.6063  160.2461 F       1  UNL1       -0.2041
     34 C         142.0532  144.2752  161.1982 C.ar    1  UNL1        0.0476
     35 C         142.8190  143.7401  162.3717 C.ar    1  UNL1        0.0904
@<TRIPOS>BOND
     1    10    11    2
     2    11    12    1
     3    12    13    1
     4    13    14    1
     5    14    15   ar
     6    15    16   ar
     7    16    17   ar
     8    17     9    1
     9     9     7    1
    10     7     1    1
    11     1     2    1
    12     2     3    1
    13     3     4    1
    14     4    22    1
    15    22    23    1
    16    23    24    1
    17    24    25   am
    18    25    26    2
    19    25    27    1
    20    27    28    1
    21    28    29    1
    22    29    30   ar
    23    30    31   ar
    24    31    32   ar
    25    32    33    1
    26    32    34   ar
    27    34    35   ar
    28     4     5    1
    29     5     6    1
    30    17    18   ar
    31    18    19   ar
    32    19    20    1
    33    20    11   am
    34    19    14   ar
    35     6     1    1
    36    35    24    1
    37    35    29   ar
    38     7     8    1
    39    20    21    1
@<TRIPOS>MOLECULE
*****
 35 39 0 0 0
SMALL
GASTEIGER

@<TRIPOS>ATOM
      1 C         144.0776  143.2400  162.6358 C.3     1  UNL1        0.0570
      2 C         143.1645  143.2167  161.4460 C.3     1  UNL1        0.0331
      3 C         141.8390  143.9165  161.5039 C.3     1  UNL1        0.0735
      4 N         141.4265  144.6396  162.7517 N.3     1  UNL1       -0.2711
      5 C         142.3397  144.6629  163.9416 C.3     1  UNL1        0.0735
      6 C         143.6652  143.9632  163.8836 C.3     1  UNL1        0.0331
      7 N         145.4030  142.5403  162.5778 N.3     1  UNL1       -0.2934
      8 H         145.5868  142.3387  161.5950 H       1  UNL1        0.1236
      9 C         145.6075  141.2577  163.3285 C.3     1  UNL1        0.1152
     10 O         139.0121  137.8298  160.9835 O.2     1  UNL1       -0.2707
     11 C         140.0433  138.0730  162.0453 C.2     1  UNL1        0.2718
     12 C         139.9072  137.4169  163.3873 C.3     1  UNL1        0.2898
     13 O         140.9384  137.6602  164.4492 O.3     1  UNL1       -0.4628
     14 C         142.1056  138.5596  164.1690 C.ar    1  UNL1        0.1708
     15 C         143.1368  138.8028  165.2308 C.ar    1  UNL1        0.0411
     16 C         144.3041  139.7022  164.9507 C.ar    1  UNL1        0.0193
     17 C         144.4403  140.3584  163.6086 C.ar    1  UNL1        0.0765
     18 N         143.4091  140.1151  162.5468 N.ar    1  UNL1       -0.2304
     19 C         142.2417  139.2157  162.8270 C.ar    1  UNL1        0.1682
     20 N         141.2106  138.9724  161.7652 N.am    1  UNL1       -0.2639
     21 H         141.2999  139.4030  160.8844 H       1  UNL1        0.1565
     22 C         140.1011  145.3394  162.8097 C.3     1  UNL1        0.0942
     23 C         139.0148  144.8155  163.7016 C.3     1  UNL1        0.1157
     24 N         138.7692  143.3387  163.7964 N.am    1  UNL1       -0.2515
     25 C         138.0892  142.6178  162.6704 C.2     1  UNL1        0.2740
     26 O         137.6548  143.3736  161.4496 O.2     1  UNL1       -0.2705
     27 C         137.8435  141.1411  162.7651 C.3     1  UNL1        0.2900
     28 O         138.2778  140.3853  163.9858 O.3     1  UNL1       -0.4643
     29 C         138.9578  141.1062  165.1118 C.ar    1  UNL1        0.1529
     30 C         139.3921  140.3505  166.3325 C.ar    1  UNL1        0.0405
     31 C         140.0721  141.0714  167.4585 C.ar    1  UNL1        0.0328
     32 C         140.3178  142.5481  167.3638 C.ar    1  UNL1        0.1416
     33 F         140.9978  143.2690  168.4898 F       1  UNL1       -0.2041
     34 C         139.8835  143.3039  166.1431 C.ar    1  UNL1        0.0476
     35 C         139.2035  142.5830  165.0171 C.ar    1  UNL1        0.0904
@<TRIPOS>BOND
     1    10    11    2
     2    11    12    1
     3    12    13    1
     4    13    14    1
     5    14    15   ar
     6    15    16   ar
     7    16    17   ar
     8    17     9    1
     9     9     7    1
    10     7     1    1
    11     1     2    1
    12     2     3    1
    13     3     4    1
    14     4    22    1
    15    22    23    1
    16    23    24    1
    17    24    25   am
    18    25    26    2
    19    25    27    1
    20    27    28    1
    21    28    29    1
    22    29    30   ar
    23    30    31   ar
    24    31    32   ar
    25    32    33    1
    26    32    34   ar
    27    34    35   ar
    28     4     5    1
    29     5     6    1
    30    17    18   ar
    31    18    19   ar
    32    19    20    1
    33    20    11   am
    34    19    14   ar
    35     6     1    1
    36    35    24    1
    37    35    29   ar
    38     7     8    1
    39    20    21    1
@<TRIPOS>MOLECULE
*****
 35 39 0 0 0
SMALL
GASTEIGER

@<TRIPOS>ATOM
      1 C         139.5686  138.0957  162.7934 C.3     1  UNL1        0.0570
      2 C         141.0056  138.3399  162.4392 C.3     1  UNL1        0.0331
      3 C         142.0224  138.5377  163.5242 C.3     1  UNL1        0.0735
      4 N         141.6021  138.4912  164.9634 N.3     1  UNL1       -0.2711
      5 C         140.1651  138.2470  165.3176 C.3     1  UNL1        0.0735
      6 C         139.1484  138.0493  164.2326 C.3     1  UNL1        0.0331
      7 N         138.5519  137.8980  161.7085 N.3     1  UNL1       -0.2934
      8 H         139.0695  137.6924  160.8539 H       1  UNL1        0.1236
      9 C         137.5863  138.9968  161.3762 C.3     1  UNL1        0.1152
     10 O         141.6071  145.4477  159.6533 O.2     1  UNL1       -0.2707
     11 C         140.6231  144.7240  160.5239 C.2     1  UNL1        0.2718
     12 C         139.9953  145.4269  161.6908 C.3     1  UNL1        0.2898
     13 O         139.0113  144.7033  162.5614 O.3     1  UNL1       -0.4628
     14 C         138.6550  143.2767  162.2651 C.ar    1  UNL1        0.1708
     15 C         137.6710  142.5530  163.1358 C.ar    1  UNL1        0.0411
     16 C         137.3148  141.1264  162.8395 C.ar    1  UNL1        0.0193
     17 C         137.9425  140.4234  161.6725 C.ar    1  UNL1        0.0765
     18 N         138.9266  141.1471  160.8019 N.ar    1  UNL1       -0.2304
     19 C         139.2828  142.5737  161.0982 C.ar    1  UNL1        0.1682
     20 N         140.2668  143.2974  160.2276 N.am    1  UNL1       -0.2639
     21 H         140.6789  142.8360  159.4617 H       1  UNL1        0.1565
     22 C         142.6188  138.6890  166.0483 C.3     1  UNL1        0.0942
     23 C         142.6574  139.9782  166.8141 C.3     1  UNL1        0.1157
     24 N         142.0567  141.2195  166.2237 N.am    1  UNL1       -0.2515
     25 C         140.7002  141.6806  166.6678 C.2     1  UNL1        0.2740
     26 O         139.9444  140.9005  167.7023 O.2     1  UNL1       -0.2705
     27 C         140.0996  142.9218  166.0774 C.3     1  UNL1        0.2900
     28 O         140.8554  143.7020  165.0429 O.3     1  UNL1       -0.4643
     29 C         142.2119  143.2408  164.5988 C.ar    1  UNL1        0.1529
     30 C         142.9678  144.0209  163.5643 C.ar    1  UNL1        0.0405
     31 C         144.3242  143.5597  163.1202 C.ar    1  UNL1        0.0328
     32 C         144.9249  142.3185  163.7105 C.ar    1  UNL1        0.1416
     33 F         146.2814  141.8573  163.2664 F       1  UNL1       -0.2041
     34 C         144.1691  141.5384  164.7450 C.ar    1  UNL1        0.0476
     35 C         142.8126  141.9995  165.1892 C.ar    1  UNL1        0.0904
@<TRIPOS>BOND
     1    10    11    2
     2    11    12    1
     3    12    13    1
     4    13    14    1
     5    14    15   ar
     6    15    16   ar
     7    16    17   ar
     8    17     9    1
     9     9     7    1
    10     7     1    1
    11     1     2    1
    12     2     3    1
    13     3     4    1
    14     4    22    1
    15    22    23    1
    16    23    24    1
    17    24    25   am
    18    25    26    2
    19    25    27    1
    20    27    28    1
    21    28    29    1
    22    29    30   ar
    23    30    31   ar
    24    31    32   ar
    25    32    33    1
    26    32    34   ar
    27    34    35   ar
    28     4     5    1
    29     5     6    1
    30    17    18   ar
    31    18    19   ar
    32    19    20    1
    33    20    11   am
    34    19    14   ar
    35     6     1    1
    36    35    24    1
    37    35    29   ar
    38     7     8    1
    39    20    21    1
@<TRIPOS>MOLECULE
*****
 35 39 0 0 0
SMALL
GASTEIGER

@<TRIPOS>ATOM
      1 C         139.4860  137.8081  162.6344 C.3     1  UNL1        0.0570
      2 C         139.2452  137.7345  164.1131 C.3     1  UNL1        0.0331
      3 C         140.3975  137.8458  165.0671 C.3     1  UNL1        0.0735
      4 N         141.7905  138.0306  164.5423 N.3     1  UNL1       -0.2711
      5 C         142.0312  138.1042  163.0635 C.3     1  UNL1        0.0735
      6 C         140.8790  137.9929  162.1096 C.3     1  UNL1        0.0331
      7 N         138.3338  137.6969  161.6805 N.3     1  UNL1       -0.2934
      8 H         138.7254  137.4401  160.7744 H       1  UNL1        0.1236
      9 C         137.4375  138.8767  161.4462 C.3     1  UNL1        0.1152
     10 O         138.3123  145.3136  165.7532 O.2     1  UNL1       -0.2707
     11 C         138.5555  144.5600  164.4792 C.2     1  UNL1        0.2718
     12 C         139.3335  145.1984  163.3670 C.3     1  UNL1        0.2898
     13 O         139.5767  144.4448  162.0931 O.3     1  UNL1       -0.4628
     14 C         139.0419  143.0528  161.9313 C.ar    1  UNL1        0.1708
     15 C         139.2851  142.2992  160.6574 C.ar    1  UNL1        0.0411
     16 C         138.7503  140.9072  160.4957 C.ar    1  UNL1        0.0193
     17 C         137.9723  140.2687  161.6079 C.ar    1  UNL1        0.0765
     18 N         137.7291  141.0223  162.8819 N.ar    1  UNL1       -0.2304
     19 C         138.2639  142.4144  163.0436 C.ar    1  UNL1        0.1682
     20 N         138.0207  143.1680  164.3175 N.am    1  UNL1       -0.2639
     21 H         137.5101  142.7489  165.0475 H       1  UNL1        0.1565
     22 C         142.9427  138.1418  165.4961 C.3     1  UNL1        0.0942
     23 C         142.9156  139.1695  166.5884 C.3     1  UNL1        0.1157
     24 N         142.2674  140.5011  166.3494 N.am    1  UNL1       -0.2515
     25 C         140.9667  140.8329  167.0188 C.2     1  UNL1        0.2740
     26 O         140.3142  139.8333  167.9272 O.2     1  UNL1       -0.2705
     27 C         140.3186  142.1644  166.7799 C.3     1  UNL1        0.2900
     28 O         140.9711  143.1640  165.8716 O.3     1  UNL1       -0.4643
     29 C         142.2718  142.8321  165.2022 C.ar    1  UNL1        0.1529
     30 C         142.9243  143.8317  164.2939 C.ar    1  UNL1        0.0405
     31 C         144.2250  143.4998  163.6245 C.ar    1  UNL1        0.0328
     32 C         144.8731  142.1684  163.8634 C.ar    1  UNL1        0.1416
     33 F         146.1738  141.8365  163.1940 F       1  UNL1       -0.2041
     34 C         144.2206  141.1687  164.7718 C.ar    1  UNL1        0.0476
     35 C         142.9199  141.5006  165.4412 C.ar    1  UNL1        0.0904
@<TRIPOS>BOND
     1    10    11    2
     2    11    12    1
     3    12    13    1
     4    13    14    1
     5    14    15   ar
     6    15    16   ar
     7    16    17   ar
     8    17     9    1
     9     9     7    1
    10     7     1    1
    11     1     2    1
    12     2     3    1
    13     3     4    1
    14     4    22    1
    15    22    23    1
    16    23    24    1
    17    24    25   am
    18    25    26    2
    19    25    27    1
    20    27    28    1
    21    28    29    1
    22    29    30   ar
    23    30    31   ar
    24    31    32   ar
    25    32    33    1
    26    32    34   ar
    27    34    35   ar
    28     4     5    1
    29     5     6    1
    30    17    18   ar
    31    18    19   ar
    32    19    20    1
    33    20    11   am
    34    19    14   ar
    35     6     1    1
    36    35    24    1
    37    35    29   ar
    38     7     8    1
    39    20    21    1
