@<TRIPOS>MOLECULE
*****
 34 38 0 0 0
SMALL
GASTEIGER

@<TRIPOS>ATOM
      1 N         143.1114  138.9915  162.5316 N.3     1  UNL1       -0.2712
      2 C         144.3686  139.7218  162.1627 C.3     1  UNL1        0.0738
      3 C         144.5867  140.8086  163.1733 C.3     1  UNL1        0.0372
      4 C         145.4986  141.9317  163.5699 C.3     1  UNL1        0.0245
      5 C         144.9398  142.5671  164.8085 C.3     1  UNL1        0.0909
      6 N         143.6826  141.8366  165.1774 N.pl3   1  UNL1       -0.3077
      7 C         143.4644  140.7499  164.1668 C.3     1  UNL1        0.0901
      8 C         142.5526  139.6268  163.7702 C.3     1  UNL1        0.0921
      9 C         142.7988  142.1398  166.3509 C.ar    1  UNL1        0.0478
     10 C         141.3245  142.3294  166.1502 C.ar    1  UNL1        0.0145
     11 C         140.4407  142.6326  167.3236 C.ar    1  UNL1        0.0051
     12 C         141.0312  142.7461  168.6978 C.ar    1  UNL1        0.0715
     13 C         142.5057  142.5564  168.8985 C.ar    1  UNL1        0.0051
     14 C         143.3894  142.2533  167.7251 C.ar    1  UNL1        0.0145
     15 C         140.1475  143.0492  169.8713 C.3     1  UNL1        0.4186
     16 F         139.2637  143.3524  171.0447 F       1  UNL1       -0.1659
     17 F         140.7858  144.4002  170.0030 F       1  UNL1       -0.1659
     18 F         139.5092  141.6982  169.7395 F       1  UNL1       -0.1659
     19 C         142.5173  137.8297  161.7918 C.3     1  UNL1        0.0731
     20 C         142.7794  137.6616  160.3245 C.3     1  UNL1        0.0294
     21 C         142.1859  138.6264  159.3412 C.3     1  UNL1        0.0666
     22 S         140.7012  138.6652  159.1313 S.3     1  UNL1       -0.0756
     23 C         138.7900  140.9766  161.5951 C.ar    1  UNL1        0.2043
     24 N         138.1186  139.6602  161.8525 N.ar    1  UNL1       -0.1249
     25 N         138.7527  138.6341  160.9609 N.ar    1  UNL1       -0.1220
     26 C         139.8162  139.3164  160.1524 C.ar    1  UNL1        0.1933
     27 N         139.8393  140.7641  160.5443 N.ar    1  UNL1       -0.2859
     28 C         140.7514  141.8148  159.9839 C.3     1  UNL1        0.1341
     29 C         138.2997  144.7456  165.2605 C.3     1  UNL1        0.0557
     30 C         138.2434  144.0095  163.9548 C.ar    1  UNL1        0.1012
     31 C         138.7152  142.6065  163.7124 C.ar    1  UNL1        0.0613
     32 C         138.4687  142.2772  162.2699 C.ar    1  UNL1        0.2122
     33 O         137.8445  143.4767  161.6207 O.2     1  UNL1       -0.3506
     34 N         137.7053  144.5474  162.6620 N.ar    1  UNL1       -0.0812
@<TRIPOS>BOND
     1    29    30    1
     2    30    31   ar
     3    31    32   ar
     4    32    23    1
     5    23    24   ar
     6    24    25   ar
     7    25    26   ar
     8    26    22    1
     9    22    21    1
    10    21    20    1
    11    20    19    1
    12    19     1    1
    13     1     2    1
    14     2     3    1
    15     3     4    1
    16     4     5    1
    17     5     6    1
    18     6     9    1
    19     9    10   ar
    20    10    11   ar
    21    11    12   ar
    22    12    15    1
    23    15    16    1
    24    15    17    1
    25    15    18    1
    26    12    13   ar
    27    13    14   ar
    28     6     7    1
    29     7     8    1
    30    26    27   ar
    31    27    28    1
    32    32    33   ar
    33    33    34   ar
    34    34    30   ar
    35    27    23   ar
    36     8     1    1
    37     7     3    1
    38    14     9   ar
@<TRIPOS>MOLECULE
*****
 34 38 0 0 0
SMALL
GASTEIGER

@<TRIPOS>ATOM
      1 N         142.2837  138.1275  162.6539 N.3     1  UNL1       -0.2712
      2 C         140.8952  137.5602  162.6568 C.3     1  UNL1        0.0738
      3 C         140.1975  138.0487  163.8916 C.3     1  UNL1        0.0372
      4 C         138.9081  138.0000  164.6565 C.3     1  UNL1        0.0245
      5 C         139.0686  138.8391  165.8894 C.3     1  UNL1        0.0909
      6 N         140.4572  139.4065  165.8865 N.pl3   1  UNL1       -0.3077
      7 C         141.1549  138.9180  164.6517 C.3     1  UNL1        0.0901
      8 C         142.4443  138.9667  163.8868 C.3     1  UNL1        0.0921
      9 C         141.0449  140.3047  166.9343 C.ar    1  UNL1        0.0478
     10 C         142.2405  139.8566  167.7215 C.ar    1  UNL1        0.0145
     11 C         142.8282  140.7547  168.7693 C.ar    1  UNL1        0.0051
     12 C         142.2203  142.1010  169.0299 C.ar    1  UNL1        0.0715
     13 C         141.0247  142.5492  168.2427 C.ar    1  UNL1        0.0051
     14 C         140.4370  141.6510  167.1949 C.ar    1  UNL1        0.0145
     15 C         142.8080  142.9991  170.0777 C.3     1  UNL1        0.4186
     16 F         143.3957  143.8973  171.1255 F       1  UNL1       -0.1659
     17 F         144.0514  142.1603  170.0994 F       1  UNL1       -0.1659
     18 F         141.5647  143.8380  170.0560 F       1  UNL1       -0.1659
     19 C         143.3284  137.8963  161.6026 C.3     1  UNL1        0.0731
     20 C         142.9192  137.6328  160.1838 C.3     1  UNL1        0.0294
     21 C         142.7326  138.7772  159.2321 C.3     1  UNL1        0.0666
     22 S         141.3638  139.1072  158.7151 S.3     1  UNL1       -0.0756
     23 C         139.1336  141.1403  161.1561 C.ar    1  UNL1        0.2043
     24 N         138.3190  139.8916  160.9909 N.ar    1  UNL1       -0.1249
     25 N         139.0553  138.9780  160.0564 N.ar    1  UNL1       -0.1220
     26 C         140.3250  139.6621  159.6440 C.ar    1  UNL1        0.1933
     27 N         140.3734  140.9984  160.3236 N.ar    1  UNL1       -0.2859
     28 C         141.4691  142.0145  160.1936 C.3     1  UNL1        0.1341
     29 C         138.9048  144.5523  165.1793 C.3     1  UNL1        0.0557
     30 C         138.6668  143.8914  163.8540 C.ar    1  UNL1        0.1012
     31 C         139.2897  142.6108  163.3828 C.ar    1  UNL1        0.0613
     32 C         138.7719  142.3231  162.0047 C.ar    1  UNL1        0.2122
     33 O         137.8290  143.4259  161.6241 O.2     1  UNL1       -0.3506
     34 N         137.7640  144.3952  162.7671 N.ar    1  UNL1       -0.0812
@<TRIPOS>BOND
     1    29    30    1
     2    30    31   ar
     3    31    32   ar
     4    32    23    1
     5    23    24   ar
     6    24    25   ar
     7    25    26   ar
     8    26    22    1
     9    22    21    1
    10    21    20    1
    11    20    19    1
    12    19     1    1
    13     1     2    1
    14     2     3    1
    15     3     4    1
    16     4     5    1
    17     5     6    1
    18     6     9    1
    19     9    10   ar
    20    10    11   ar
    21    11    12   ar
    22    12    15    1
    23    15    16    1
    24    15    17    1
    25    15    18    1
    26    12    13   ar
    27    13    14   ar
    28     6     7    1
    29     7     8    1
    30    26    27   ar
    31    27    28    1
    32    32    33   ar
    33    33    34   ar
    34    34    30   ar
    35    27    23   ar
    36     8     1    1
    37     7     3    1
    38    14     9   ar
@<TRIPOS>MOLECULE
*****
 34 38 0 0 0
SMALL
GASTEIGER

@<TRIPOS>ATOM
      1 N         142.1571  138.4072  162.4252 N.3     1  UNL1       -0.2712
      2 C         140.8230  137.7248  162.4924 C.3     1  UNL1        0.0738
      3 C         140.1788  138.0939  163.7957 C.3     1  UNL1        0.0372
      4 C         138.9561  137.9003  164.6428 C.3     1  UNL1        0.0245
      5 C         139.1363  138.6911  165.9047 C.3     1  UNL1        0.0909
      6 N         140.4705  139.3735  165.8374 N.pl3   1  UNL1       -0.3077
      7 C         141.1147  139.0044  164.5340 C.3     1  UNL1        0.0901
      8 C         142.3374  139.1981  163.6869 C.3     1  UNL1        0.0921
      9 C         141.0573  140.2680  166.8888 C.ar    1  UNL1        0.0478
     10 C         140.5172  141.6541  167.0811 C.ar    1  UNL1        0.0145
     11 C         141.1040  142.5486  168.1325 C.ar    1  UNL1        0.0051
     12 C         142.2309  142.0569  168.9918 C.ar    1  UNL1        0.0715
     13 C         142.7710  140.6708  168.7996 C.ar    1  UNL1        0.0051
     14 C         142.1842  139.7763  167.7481 C.ar    1  UNL1        0.0145
     15 C         142.8177  142.9514  170.0432 C.3     1  UNL1        0.4186
     16 F         143.4045  143.8459  171.0947 F       1  UNL1       -0.1659
     17 F         141.5413  143.7380  170.0864 F       1  UNL1       -0.1659
     18 F         144.0942  142.1647  170.0000 F       1  UNL1       -0.1659
     19 C         143.1386  138.3150  161.2946 C.3     1  UNL1        0.0731
     20 C         143.7756  139.5594  160.7510 C.3     1  UNL1        0.0294
     21 C         143.7911  139.8095  159.2720 C.3     1  UNL1        0.0666
     22 S         143.0209  140.9616  158.6981 S.3     1  UNL1       -0.0756
     23 C         141.2548  143.4309  161.1166 C.ar    1  UNL1        0.2043
     24 N         142.5137  144.1835  160.8022 N.ar    1  UNL1       -0.1249
     25 N         143.3285  143.3501  159.8579 N.ar    1  UNL1       -0.1220
     26 C         142.5732  142.0824  159.5888 C.ar    1  UNL1        0.1933
     27 N         141.2916  142.1323  160.3666 N.ar    1  UNL1       -0.2859
     28 C         140.2327  141.0701  160.3904 C.3     1  UNL1        0.1341
     29 C         138.5743  144.8880  165.4261 C.3     1  UNL1        0.0557
     30 C         138.9206  144.5651  164.0029 C.ar    1  UNL1        0.1012
     31 C         140.2555  144.0957  163.5050 C.ar    1  UNL1        0.0613
     32 C         140.1527  143.8953  162.0220 C.ar    1  UNL1        0.2122
     33 O         138.7544  144.2408  161.6033 O.2     1  UNL1       -0.3506
     34 N         137.9929  144.6548  162.8276 N.ar    1  UNL1       -0.0812
@<TRIPOS>BOND
     1    29    30    1
     2    30    31   ar
     3    31    32   ar
     4    32    23    1
     5    23    24   ar
     6    24    25   ar
     7    25    26   ar
     8    26    22    1
     9    22    21    1
    10    21    20    1
    11    20    19    1
    12    19     1    1
    13     1     2    1
    14     2     3    1
    15     3     4    1
    16     4     5    1
    17     5     6    1
    18     6     9    1
    19     9    10   ar
    20    10    11   ar
    21    11    12   ar
    22    12    15    1
    23    15    16    1
    24    15    17    1
    25    15    18    1
    26    12    13   ar
    27    13    14   ar
    28     6     7    1
    29     7     8    1
    30    26    27   ar
    31    27    28    1
    32    32    33   ar
    33    33    34   ar
    34    34    30   ar
    35    27    23   ar
    36     8     1    1
    37     7     3    1
    38    14     9   ar
@<TRIPOS>MOLECULE
*****
 34 38 0 0 0
SMALL
GASTEIGER

@<TRIPOS>ATOM
      1 N         141.6857  143.4746  161.6050 N.3     1  UNL1       -0.2712
      2 C         140.6487  144.5258  161.8688 C.3     1  UNL1        0.0738
      3 C         140.1803  144.3695  163.2852 C.3     1  UNL1        0.0372
      4 C         139.2499  144.9227  164.3237 C.3     1  UNL1        0.0245
      5 C         139.4224  144.1168  165.5770 C.3     1  UNL1        0.0909
      6 N         140.4595  143.0656  165.3131 N.pl3   1  UNL1       -0.3077
      7 C         140.9279  143.2218  163.8967 C.3     1  UNL1        0.0901
      8 C         141.8583  142.6687  162.8583 C.3     1  UNL1        0.0921
      9 C         140.9432  142.0386  166.2936 C.ar    1  UNL1        0.0478
     10 C         141.9321  140.9967  165.8617 C.ar    1  UNL1        0.0145
     11 C         142.4158  139.9696  166.8421 C.ar    1  UNL1        0.0051
     12 C         141.9106  139.9845  168.2544 C.ar    1  UNL1        0.0715
     13 C         140.9217  141.0264  168.6863 C.ar    1  UNL1        0.0051
     14 C         140.4380  142.0535  167.7059 C.ar    1  UNL1        0.0145
     15 C         142.3943  138.9574  169.2348 C.3     1  UNL1        0.4186
     16 F         142.8780  137.9304  170.2152 F       1  UNL1       -0.1659
     17 F         143.2594  138.3493  168.1709 F       1  UNL1       -0.1659
     18 F         141.5292  139.5656  170.2986 F       1  UNL1       -0.1659
     19 C         142.4211  143.2659  160.3144 C.3     1  UNL1        0.0731
     20 C         141.7572  142.5407  159.1816 C.3     1  UNL1        0.0294
     21 C         140.4959  143.0851  158.5791 C.3     1  UNL1        0.0666
     22 S         139.1983  142.3574  158.7708 S.3     1  UNL1       -0.0756
     23 C         138.3486  141.0070  162.3092 C.ar    1  UNL1        0.2043
     24 N         137.5042  142.2459  162.2612 N.ar    1  UNL1       -0.1249
     25 N         137.7198  142.9026  160.9299 N.ar    1  UNL1       -0.1220
     26 C         138.6974  142.0695  160.1550 C.ar    1  UNL1        0.1933
     27 N         139.0860  140.8980  161.0074 N.ar    1  UNL1       -0.2859
     28 C         140.0439  139.8088  160.6252 C.3     1  UNL1        0.1341
     29 C         138.2008  138.9738  167.1800 C.3     1  UNL1        0.0557
     30 C         138.3716  139.1114  165.6961 C.ar    1  UNL1        0.1012
     31 C         138.1566  140.3619  164.8960 C.ar    1  UNL1        0.0613
     32 C         138.4396  140.0459  163.4572 C.ar    1  UNL1        0.2122
     33 O         138.8295  138.6003  163.3681 O.2     1  UNL1       -0.3506
     34 N         138.7875  138.0227  164.7518 N.ar    1  UNL1       -0.0812
@<TRIPOS>BOND
     1    29    30    1
     2    30    31   ar
     3    31    32   ar
     4    32    23    1
     5    23    24   ar
     6    24    25   ar
     7    25    26   ar
     8    26    22    1
     9    22    21    1
    10    21    20    1
    11    20    19    1
    12    19     1    1
    13     1     2    1
    14     2     3    1
    15     3     4    1
    16     4     5    1
    17     5     6    1
    18     6     9    1
    19     9    10   ar
    20    10    11   ar
    21    11    12   ar
    22    12    15    1
    23    15    16    1
    24    15    17    1
    25    15    18    1
    26    12    13   ar
    27    13    14   ar
    28     6     7    1
    29     7     8    1
    30    26    27   ar
    31    27    28    1
    32    32    33   ar
    33    33    34   ar
    34    34    30   ar
    35    27    23   ar
    36     8     1    1
    37     7     3    1
    38    14     9   ar
@<TRIPOS>MOLECULE
*****
 34 38 0 0 0
SMALL
GASTEIGER

@<TRIPOS>ATOM
      1 N         140.6424  142.9870  161.2237 N.3     1  UNL1       -0.2712
      2 C         141.9612  143.3415  160.6032 C.3     1  UNL1        0.0738
      3 C         143.0411  143.0169  161.5925 C.3     1  UNL1        0.0372
      4 C         144.5235  143.0355  161.8204 C.3     1  UNL1        0.0245
      5 C         144.7883  142.4918  163.1931 C.3     1  UNL1        0.0909
      6 N         143.4694  142.1372  163.8136 N.pl3   1  UNL1       -0.3077
      7 C         142.3896  142.4618  162.8243 C.3     1  UNL1        0.0901
      8 C         140.9071  142.4433  162.5964 C.3     1  UNL1        0.0921
      9 C         143.2661  141.5595  165.1829 C.ar    1  UNL1        0.0478
     10 C         143.1371  142.4687  166.3689 C.ar    1  UNL1        0.0145
     11 C         142.9338  141.8910  167.7382 C.ar    1  UNL1        0.0051
     12 C         142.8595  140.4042  167.9215 C.ar    1  UNL1        0.0715
     13 C         142.9885  139.4949  166.7354 C.ar    1  UNL1        0.0051
     14 C         143.1918  140.0726  165.3661 C.ar    1  UNL1        0.0145
     15 C         142.6562  139.8265  169.2907 C.3     1  UNL1        0.4186
     16 F         142.4529  139.2488  170.6600 F       1  UNL1       -0.1659
     17 F         142.9065  138.4509  168.7475 F       1  UNL1       -0.1659
     18 F         142.4059  141.2021  169.8339 F       1  UNL1       -0.1659
     19 C         139.2953  143.1479  160.5838 C.3     1  UNL1        0.0731
     20 C         138.6897  142.0113  159.8148 C.3     1  UNL1        0.0294
     21 C         139.3388  140.6592  159.8390 C.3     1  UNL1        0.0666
     22 S         138.5727  139.4683  160.3339 S.3     1  UNL1       -0.0756
     23 C         138.8782  138.6183  164.1089 C.ar    1  UNL1        0.2043
     24 N         139.6704  137.5020  163.4953 N.ar    1  UNL1       -0.1249
     25 N         139.6524  137.6846  162.0065 N.ar    1  UNL1       -0.1220
     26 C         138.8490  138.9137  161.7000 C.ar    1  UNL1        0.1933
     27 N         138.3706  139.4908  162.9992 N.ar    1  UNL1       -0.2859
     28 C         137.5318  140.7238  163.1606 C.3     1  UNL1        0.1341
     29 C         139.2991  140.3822  169.0679 C.3     1  UNL1        0.0557
     30 C         138.8297  139.6365  167.8540 C.ar    1  UNL1        0.1012
     31 C         139.4096  139.7431  166.4747 C.ar    1  UNL1        0.0613
     32 C         138.6362  138.8257  165.5746 C.ar    1  UNL1        0.2122
     33 O         137.5783  138.1521  166.3975 O.2     1  UNL1       -0.3506
     34 N         137.6979  138.6532  167.8062 N.ar    1  UNL1       -0.0812
@<TRIPOS>BOND
     1    29    30    1
     2    30    31   ar
     3    31    32   ar
     4    32    23    1
     5    23    24   ar
     6    24    25   ar
     7    25    26   ar
     8    26    22    1
     9    22    21    1
    10    21    20    1
    11    20    19    1
    12    19     1    1
    13     1     2    1
    14     2     3    1
    15     3     4    1
    16     4     5    1
    17     5     6    1
    18     6     9    1
    19     9    10   ar
    20    10    11   ar
    21    11    12   ar
    22    12    15    1
    23    15    16    1
    24    15    17    1
    25    15    18    1
    26    12    13   ar
    27    13    14   ar
    28     6     7    1
    29     7     8    1
    30    26    27   ar
    31    27    28    1
    32    32    33   ar
    33    33    34   ar
    34    34    30   ar
    35    27    23   ar
    36     8     1    1
    37     7     3    1
    38    14     9   ar
@<TRIPOS>MOLECULE
*****
 34 38 0 0 0
SMALL
GASTEIGER

@<TRIPOS>ATOM
      1 N         141.8879  144.4625  162.1141 N.3     1  UNL1       -0.2712
      2 C         143.1984  144.7213  162.7965 C.3     1  UNL1        0.0738
      3 C         143.2508  143.8768  164.0350 C.3     1  UNL1        0.0372
      4 C         144.0932  143.5148  165.2222 C.3     1  UNL1        0.0245
      5 C         143.3357  142.5103  166.0391 C.3     1  UNL1        0.0909
      6 N         142.0251  142.2515  165.3567 N.pl3   1  UNL1       -0.3077
      7 C         141.9727  143.0960  164.1182 C.3     1  UNL1        0.0901
      8 C         141.1304  143.4580  162.9310 C.3     1  UNL1        0.0921
      9 C         140.9550  141.3130  165.8299 C.ar    1  UNL1        0.0478
     10 C         139.8781  140.8663  164.8860 C.ar    1  UNL1        0.0145
     11 C         138.8079  139.9278  165.3592 C.ar    1  UNL1        0.0051
     12 C         138.8146  139.4359  166.7762 C.ar    1  UNL1        0.0715
     13 C         139.8915  139.8825  167.7201 C.ar    1  UNL1        0.0051
     14 C         140.9616  140.8210  167.2469 C.ar    1  UNL1        0.0145
     15 C         137.7444  138.4974  167.2493 C.3     1  UNL1        0.4186
     16 F         136.6742  137.5588  167.7224 F       1  UNL1       -0.1659
     17 F         137.8484  137.7309  165.9641 F       1  UNL1       -0.1659
     18 F         137.6404  139.2638  168.5345 F       1  UNL1       -0.1659
     19 C         141.4175  145.0968  160.8388 C.3     1  UNL1        0.0731
     20 C         141.3556  144.2879  159.5772 C.3     1  UNL1        0.0294
     21 C         142.6192  143.9327  158.8511 C.3     1  UNL1        0.0666
     22 S         143.1286  142.5221  158.8782 S.3     1  UNL1       -0.0756
     23 C         143.7155  140.6165  162.2084 C.ar    1  UNL1        0.2043
     24 N         144.9950  141.3901  162.0876 N.ar    1  UNL1       -0.1249
     25 N         144.9309  142.1980  160.8254 N.ar    1  UNL1       -0.1220
     26 C         143.6117  141.9239  160.1661 C.ar    1  UNL1        0.1933
     27 N         142.8605  140.9465  161.0207 N.ar    1  UNL1       -0.2859
     28 C         141.4944  140.3957  160.7376 C.3     1  UNL1        0.1341
     29 C         143.8453  137.9262  166.7499 C.3     1  UNL1        0.0557
     30 C         143.4140  138.4413  165.4088 C.ar    1  UNL1        0.1012
     31 C         144.1378  139.4624  164.5821 C.ar    1  UNL1        0.0613
     32 C         143.3543  139.6779  163.3213 C.ar    1  UNL1        0.2122
     33 O         142.1462  138.7900  163.3687 O.2     1  UNL1       -0.3506
     34 N         142.1831  138.0258  164.6589 N.ar    1  UNL1       -0.0812
@<TRIPOS>BOND
     1    29    30    1
     2    30    31   ar
     3    31    32   ar
     4    32    23    1
     5    23    24   ar
     6    24    25   ar
     7    25    26   ar
     8    26    22    1
     9    22    21    1
    10    21    20    1
    11    20    19    1
    12    19     1    1
    13     1     2    1
    14     2     3    1
    15     3     4    1
    16     4     5    1
    17     5     6    1
    18     6     9    1
    19     9    10   ar
    20    10    11   ar
    21    11    12   ar
    22    12    15    1
    23    15    16    1
    24    15    17    1
    25    15    18    1
    26    12    13   ar
    27    13    14   ar
    28     6     7    1
    29     7     8    1
    30    26    27   ar
    31    27    28    1
    32    32    33   ar
    33    33    34   ar
    34    34    30   ar
    35    27    23   ar
    36     8     1    1
    37     7     3    1
    38    14     9   ar
@<TRIPOS>MOLECULE
*****
 34 38 0 0 0
SMALL
GASTEIGER

@<TRIPOS>ATOM
      1 N         142.2423  144.0160  161.8942 N.3     1  UNL1       -0.2712
      2 C         143.6170  143.5741  161.4882 C.3     1  UNL1        0.0738
      3 C         144.1432  142.6590  162.5539 C.3     1  UNL1        0.0372
      4 C         145.3181  141.8203  162.9617 C.3     1  UNL1        0.0245
      5 C         144.9947  141.1782  164.2782 C.3     1  UNL1        0.0909
      6 N         143.6199  141.6201  164.6841 N.pl3   1  UNL1       -0.3077
      7 C         143.0937  142.5352  163.6184 C.3     1  UNL1        0.0901
      8 C         141.9188  143.3739  163.2106 C.3     1  UNL1        0.0921
      9 C         142.8980  141.2175  165.9358 C.ar    1  UNL1        0.0478
     10 C         142.2647  142.2627  166.8055 C.ar    1  UNL1        0.0145
     11 C         141.5429  141.8601  168.0573 C.ar    1  UNL1        0.0051
     12 C         141.4544  140.4123  168.4393 C.ar    1  UNL1        0.0715
     13 C         142.0877  139.3670  167.5696 C.ar    1  UNL1        0.0051
     14 C         142.8095  139.7696  166.3178 C.ar    1  UNL1        0.0145
     15 C         140.7325  140.0097  169.6910 C.3     1  UNL1        0.4186
     16 F         140.0107  139.6071  170.9428 F       1  UNL1       -0.1659
     17 F         141.7759  138.9653  169.9568 F       1  UNL1       -0.1659
     18 F         139.6892  141.0541  169.4253 F       1  UNL1       -0.1659
     19 C         141.3479  144.9380  161.1196 C.3     1  UNL1        0.0731
     20 C         141.1264  144.7116  159.6534 C.3     1  UNL1        0.0294
     21 C         140.9422  143.3184  159.1290 C.3     1  UNL1        0.0666
     22 S         139.5797  142.6910  159.1290 S.3     1  UNL1       -0.0756
     23 C         138.4210  141.1079  162.4782 C.ar    1  UNL1        0.2043
     24 N         137.4722  142.2638  162.3603 N.ar    1  UNL1       -0.1249
     25 N         137.7908  142.9975  161.0913 N.ar    1  UNL1       -0.1220
     26 C         138.9365  142.2951  160.4250 C.ar    1  UNL1        0.1933
     27 N         139.3260  141.1273  161.2820 N.ar    1  UNL1       -0.2859
     28 C         140.4271  140.1504  160.9936 C.3     1  UNL1        0.1341
     29 C         138.1321  138.9309  167.2800 C.3     1  UNL1        0.0557
     30 C         138.3254  139.1076  165.8031 C.ar    1  UNL1        0.1012
     31 C         138.1725  140.3906  165.0411 C.ar    1  UNL1        0.0613
     32 C         138.4582  140.1082  163.5959 C.ar    1  UNL1        0.2122
     33 O         138.7876  138.6508  163.4646 O.2     1  UNL1       -0.3506
     34 N         138.7055  138.0323  164.8287 N.ar    1  UNL1       -0.0812
@<TRIPOS>BOND
     1    29    30    1
     2    30    31   ar
     3    31    32   ar
     4    32    23    1
     5    23    24   ar
     6    24    25   ar
     7    25    26   ar
     8    26    22    1
     9    22    21    1
    10    21    20    1
    11    20    19    1
    12    19     1    1
    13     1     2    1
    14     2     3    1
    15     3     4    1
    16     4     5    1
    17     5     6    1
    18     6     9    1
    19     9    10   ar
    20    10    11   ar
    21    11    12   ar
    22    12    15    1
    23    15    16    1
    24    15    17    1
    25    15    18    1
    26    12    13   ar
    27    13    14   ar
    28     6     7    1
    29     7     8    1
    30    26    27   ar
    31    27    28    1
    32    32    33   ar
    33    33    34   ar
    34    34    30   ar
    35    27    23   ar
    36     8     1    1
    37     7     3    1
    38    14     9   ar
@<TRIPOS>MOLECULE
*****
 34 38 0 0 0
SMALL
GASTEIGER

@<TRIPOS>ATOM
      1 N         143.7096  141.7981  160.4471 N.3     1  UNL1       -0.2712
      2 C         144.3114  142.9665  161.1701 C.3     1  UNL1        0.0738
      3 C         143.7286  143.0068  162.5516 C.3     1  UNL1        0.0372
      4 C         143.7403  143.7539  163.8523 C.3     1  UNL1        0.0245
      5 C         142.7856  143.0721  164.7871 C.3     1  UNL1        0.0909
      6 N         142.1838  141.9037  164.0640 N.pl3   1  UNL1       -0.3077
      7 C         142.7666  141.8634  162.6824 C.3     1  UNL1        0.0901
      8 C         142.7549  141.1164  161.3817 C.3     1  UNL1        0.0921
      9 C         141.1761  140.9441  164.6242 C.ar    1  UNL1        0.0478
     10 C         141.2953  139.4773  164.3343 C.ar    1  UNL1        0.0145
     11 C         140.2877  138.5177  164.8945 C.ar    1  UNL1        0.0051
     12 C         139.1607  139.0250  165.7445 C.ar    1  UNL1        0.0715
     13 C         139.0414  140.4919  166.0344 C.ar    1  UNL1        0.0051
     14 C         140.0491  141.4515  165.4743 C.ar    1  UNL1        0.0145
     15 C         138.1530  138.0654  166.3047 C.3     1  UNL1        0.4186
     16 F         137.1453  137.1058  166.8649 F       1  UNL1       -0.1659
     17 F         138.8077  136.9416  165.5574 F       1  UNL1       -0.1659
     18 F         137.4984  139.1892  167.0521 F       1  UNL1       -0.1659
     19 C         144.0099  141.3842  159.0369 C.3     1  UNL1        0.0731
     20 C         142.8935  140.9809  158.1198 C.3     1  UNL1        0.0294
     21 C         142.5546  141.8313  156.9315 C.3     1  UNL1        0.0666
     22 S         141.5228  142.9131  157.0533 S.3     1  UNL1       -0.0756
     23 C         140.3777  144.2152  160.5259 C.ar    1  UNL1        0.2043
     24 N         141.5685  145.0897  160.2666 N.ar    1  UNL1       -0.1249
     25 N         142.1424  144.7084  158.9342 N.ar    1  UNL1       -0.1220
     26 C         141.3062  143.5982  158.3700 C.ar    1  UNL1        0.1933
     27 N         140.2156  143.2934  159.3536 N.ar    1  UNL1       -0.2859
     28 C         139.1500  142.2500  159.1933 C.3     1  UNL1        0.1341
     29 C         138.6933  144.9378  165.4778 C.3     1  UNL1        0.0557
     30 C         138.7284  144.5877  164.0196 C.ar    1  UNL1        0.1012
     31 C         139.9143  144.7163  163.1103 C.ar    1  UNL1        0.0613
     32 C         139.5026  144.2555  161.7435 C.ar    1  UNL1        0.2122
     33 O         138.0621  143.8420  161.8081 O.2     1  UNL1       -0.3506
     34 N         137.5837  144.0473  163.2148 N.ar    1  UNL1       -0.0812
@<TRIPOS>BOND
     1    29    30    1
     2    30    31   ar
     3    31    32   ar
     4    32    23    1
     5    23    24   ar
     6    24    25   ar
     7    25    26   ar
     8    26    22    1
     9    22    21    1
    10    21    20    1
    11    20    19    1
    12    19     1    1
    13     1     2    1
    14     2     3    1
    15     3     4    1
    16     4     5    1
    17     5     6    1
    18     6     9    1
    19     9    10   ar
    20    10    11   ar
    21    11    12   ar
    22    12    15    1
    23    15    16    1
    24    15    17    1
    25    15    18    1
    26    12    13   ar
    27    13    14   ar
    28     6     7    1
    29     7     8    1
    30    26    27   ar
    31    27    28    1
    32    32    33   ar
    33    33    34   ar
    34    34    30   ar
    35    27    23   ar
    36     8     1    1
    37     7     3    1
    38    14     9   ar
@<TRIPOS>MOLECULE
*****
 34 38 0 0 0
SMALL
GASTEIGER

@<TRIPOS>ATOM
      1 N         139.0200  144.3350  162.9310 N.3     1  UNL1       -0.2712
      2 C         137.9987  143.3575  162.4296 C.3     1  UNL1        0.0738
      3 C         138.0544  142.1397  163.3036 C.3     1  UNL1        0.0372
      4 C         137.4577  140.7829  163.5338 C.3     1  UNL1        0.0245
      5 C         138.1446  140.1692  164.7177 C.3     1  UNL1        0.0909
      6 N         139.1660  141.1467  165.2191 N.pl3   1  UNL1       -0.3077
      7 C         139.1102  142.3645  164.3451 C.3     1  UNL1        0.0901
      8 C         139.7069  143.7213  164.1149 C.3     1  UNL1        0.0921
      9 C         140.0821  140.9423  166.3891 C.ar    1  UNL1        0.0478
     10 C         141.3382  141.7535  166.5088 C.ar    1  UNL1        0.0145
     11 C         142.2544  141.5491  167.6787 C.ar    1  UNL1        0.0051
     12 C         141.9145  140.5335  168.7290 C.ar    1  UNL1        0.0715
     13 C         140.6584  139.7223  168.6093 C.ar    1  UNL1        0.0051
     14 C         139.7422  139.9267  167.4394 C.ar    1  UNL1        0.0145
     15 C         142.8307  140.3291  169.8990 C.3     1  UNL1        0.4186
     16 F         143.7469  140.1247  171.0689 F       1  UNL1       -0.1659
     17 F         142.5217  138.8614  169.8845 F       1  UNL1       -0.1659
     18 F         143.1397  141.7969  169.9134 F       1  UNL1       -0.1659
     19 C         139.3044  145.6885  162.3505 C.3     1  UNL1        0.0731
     20 C         140.4581  145.8739  161.4099 C.3     1  UNL1        0.0294
     21 C         140.6489  144.9280  160.2614 C.3     1  UNL1        0.0666
     22 S         141.7171  143.8769  160.3251 S.3     1  UNL1       -0.0756
     23 C         141.3971  140.5355  162.2741 C.ar    1  UNL1        0.2043
     24 N         140.4233  140.3128  161.1550 N.ar    1  UNL1       -0.1249
     25 N         140.4247  141.5374  160.2887 N.ar    1  UNL1       -0.1220
     26 C         141.3993  142.5169  160.8724 C.ar    1  UNL1        0.1933
     27 N         142.0002  141.8978  162.0994 N.ar    1  UNL1       -0.2859
     28 C         143.0245  142.5300  162.9945 C.3     1  UNL1        0.1341
     29 C         143.7747  138.1632  166.3484 C.3     1  UNL1        0.0557
     30 C         142.8052  138.4758  165.2474 C.ar    1  UNL1        0.1012
     31 C         142.8811  139.6456  164.3115 C.ar    1  UNL1        0.0613
     32 C         141.7123  139.5662  163.3746 C.ar    1  UNL1        0.2122
     33 O         140.9140  138.3475  163.7315 O.2     1  UNL1       -0.3506
     34 N         141.5895  137.6736  164.8889 N.ar    1  UNL1       -0.0812
@<TRIPOS>BOND
     1    29    30    1
     2    30    31   ar
     3    31    32   ar
     4    32    23    1
     5    23    24   ar
     6    24    25   ar
     7    25    26   ar
     8    26    22    1
     9    22    21    1
    10    21    20    1
    11    20    19    1
    12    19     1    1
    13     1     2    1
    14     2     3    1
    15     3     4    1
    16     4     5    1
    17     5     6    1
    18     6     9    1
    19     9    10   ar
    20    10    11   ar
    21    11    12   ar
    22    12    15    1
    23    15    16    1
    24    15    17    1
    25    15    18    1
    26    12    13   ar
    27    13    14   ar
    28     6     7    1
    29     7     8    1
    30    26    27   ar
    31    27    28    1
    32    32    33   ar
    33    33    34   ar
    34    34    30   ar
    35    27    23   ar
    36     8     1    1
    37     7     3    1
    38    14     9   ar
