@<TRIPOS>MOLECULE
*****
 27 30 0 0 0
SMALL
GASTEIGER

@<TRIPOS>ATOM
      1 C         140.2560  142.0065  167.0215 C.ar    1  UNL1        0.0890
      2 C         140.0731  142.9319  165.8554 C.ar    1  UNL1        0.0401
      3 C         139.2027  142.5242  164.7036 C.ar    1  UNL1        0.1051
      4 N         139.0198  143.4496  163.5374 N.ar    1  UNL1       -0.2405
      5 C         138.1495  143.0419  162.3858 C.ar    1  UNL1        0.1195
      6 C         137.4622  141.7087  162.4004 C.ar    1  UNL1        0.1197
      7 N         137.6451  140.7833  163.5666 N.ar    1  UNL1       -0.2360
      8 C         138.5154  141.1910  164.7182 C.ar    1  UNL1        0.1519
      9 C         138.6984  140.2656  165.8845 C.ar    1  UNL1        0.2445
     10 N         139.5687  140.6733  167.0361 N.ar    1  UNL1       -0.2102
     11 C         144.4507  142.6570  170.1621 C.3     1  UNL1        0.1538
     12 N         143.0544  142.7132  169.6168 N.ar    1  UNL1       -0.2473
     13 C         142.5906  142.1225  168.3183 C.ar    1  UNL1        0.0982
     14 C         141.1263  142.4142  168.1733 C.ar    1  UNL1        0.0574
     15 C         140.6853  143.1851  169.3820 C.ar    1  UNL1        0.1231
     16 N         141.8768  143.3699  170.2742 N.ar    1  UNL1       -0.1675
     17 O         138.0111  138.9324  165.8990 O.3     1  UNL1       -0.4591
     18 C         138.7598  137.6980  165.4920 C.3     1  UNL1        0.2086
     19 C         139.7475  137.7575  164.3646 C.3     1  UNL1        0.0650
     20 C         139.2756  137.6297  162.9466 C.3     1  UNL1        0.0726
     21 N         140.2633  137.6892  161.8192 N.3     1  UNL1       -0.2928
     22 C         141.7229  137.8764  162.1099 C.3     1  UNL1        0.1359
     23 C         142.1948  138.0042  163.5280 C.3     1  UNL1        0.2783
     24 F         143.1215  138.1730  164.6954 F       1  UNL1       -0.2028
     25 F         143.5043  138.1223  162.8061 F       1  UNL1       -0.2028
     26 C         141.2072  137.9448  164.6554 C.3     1  UNL1        0.0731
     27 H         139.9804  138.4651  161.2205 H       1  UNL1        0.1234
@<TRIPOS>BOND
     1    11    12    1
     2    12    13   ar
     3    13    14   ar
     4    14     1    1
     5     1     2   ar
     6     2     3   ar
     7     3     4   ar
     8     4     5   ar
     9     5     6   ar
    10     6     7   ar
    11     7     8   ar
    12     8     9   ar
    13     9    17    1
    14    17    18    1
    15    18    19    1
    16    19    20    1
    17    20    21    1
    18    21    22    1
    19    22    23    1
    20    23    24    1
    21    23    25    1
    22    23    26    1
    23     9    10   ar
    24    14    15   ar
    25    15    16   ar
    26    16    12   ar
    27    10     1   ar
    28     8     3   ar
    29    26    19    1
    30    21    27    1
@<TRIPOS>MOLECULE
*****
 27 30 0 0 0
SMALL
GASTEIGER

@<TRIPOS>ATOM
      1 C         139.3568  142.5065  164.9792 C.ar    1  UNL1        0.0890
      2 C         140.2799  142.8363  166.1146 C.ar    1  UNL1        0.0401
      3 C         140.4197  141.8869  167.2675 C.ar    1  UNL1        0.1051
      4 N         141.3427  142.2167  168.4029 N.ar    1  UNL1       -0.2405
      5 C         141.4825  141.2674  169.5558 C.ar    1  UNL1        0.1195
      6 C         140.6992  139.9882  169.5733 C.ar    1  UNL1        0.1197
      7 N         139.7762  139.6584  168.4379 N.ar    1  UNL1       -0.2360
      8 C         139.6364  140.6078  167.2850 C.ar    1  UNL1        0.1519
      9 C         138.7133  140.2780  166.1496 C.ar    1  UNL1        0.2445
     10 N         138.5735  141.2273  164.9967 N.ar    1  UNL1       -0.2102
     11 C         140.4546  145.4421  160.7297 C.3     1  UNL1        0.1538
     12 N         139.7217  144.8052  161.8729 N.ar    1  UNL1       -0.2473
     13 C         140.2994  143.8333  162.8588 C.ar    1  UNL1        0.0982
     14 C         139.2170  143.4558  163.8262 C.ar    1  UNL1        0.0574
     15 C         137.9703  144.1943  163.4383 C.ar    1  UNL1        0.1231
     16 N         138.2822  145.0282  162.2311 N.ar    1  UNL1       -0.1675
     17 O         137.9300  138.9989  166.1670 O.3     1  UNL1       -0.4591
     18 C         138.5616  137.7261  165.6864 C.3     1  UNL1        0.2086
     19 C         139.4548  137.7404  164.4815 C.3     1  UNL1        0.0650
     20 C         138.8642  137.6139  163.1085 C.3     1  UNL1        0.0726
     21 N         139.7574  137.6283  161.9035 N.3     1  UNL1       -0.2928
     22 C         141.2413  137.7691  162.0716 C.3     1  UNL1        0.1359
     23 C         141.8320  137.8956  163.4446 C.3     1  UNL1        0.2783
     24 F         142.8564  138.0451  164.5301 F       1  UNL1       -0.2028
     25 F         143.0810  137.9619  162.6166 F       1  UNL1       -0.2028
     26 C         140.9387  137.8813  164.6495 C.3     1  UNL1        0.0731
     27 H         139.4520  138.4070  161.3198 H       1  UNL1        0.1234
@<TRIPOS>BOND
     1    11    12    1
     2    12    13   ar
     3    13    14   ar
     4    14     1    1
     5     1     2   ar
     6     2     3   ar
     7     3     4   ar
     8     4     5   ar
     9     5     6   ar
    10     6     7   ar
    11     7     8   ar
    12     8     9   ar
    13     9    17    1
    14    17    18    1
    15    18    19    1
    16    19    20    1
    17    20    21    1
    18    21    22    1
    19    22    23    1
    20    23    24    1
    21    23    25    1
    22    23    26    1
    23     9    10   ar
    24    14    15   ar
    25    15    16   ar
    26    16    12   ar
    27    10     1   ar
    28     8     3   ar
    29    26    19    1
    30    21    27    1
@<TRIPOS>MOLECULE
*****
 27 30 0 0 0
SMALL
GASTEIGER

@<TRIPOS>ATOM
      1 C         140.8041  142.5959  165.9770 C.ar    1  UNL1        0.0890
      2 C         140.5487  142.7771  167.4439 C.ar    1  UNL1        0.0401
      3 C         141.2557  141.9078  168.4413 C.ar    1  UNL1        0.1051
      4 N         141.0003  142.0890  169.9082 N.ar    1  UNL1       -0.2405
      5 C         141.7072  141.2197  170.9055 C.ar    1  UNL1        0.1195
      6 C         142.6696  140.1693  170.4359 C.ar    1  UNL1        0.1197
      7 N         142.9250  139.9882  168.9689 N.ar    1  UNL1       -0.2360
      8 C         142.2180  140.8574  167.9717 C.ar    1  UNL1        0.1519
      9 C         142.4734  140.6763  166.5047 C.ar    1  UNL1        0.2445
     10 N         141.7664  141.5455  165.5074 N.ar    1  UNL1       -0.2102
     11 C         139.8763  146.0349  162.0791 C.3     1  UNL1        0.1538
     12 N         139.6707  145.0459  163.1880 N.ar    1  UNL1       -0.2473
     13 C         140.7518  144.3694  163.9778 C.ar    1  UNL1        0.0982
     14 C         140.0971  143.4652  164.9797 C.ar    1  UNL1        0.0574
     15 C         138.6115  143.5828  164.8091 C.ar    1  UNL1        0.1231
     16 N         138.3479  144.5597  163.7018 N.ar    1  UNL1       -0.1675
     17 O         143.4357  139.6259  166.0350 O.3     1  UNL1       -0.4591
     18 C         142.9346  138.2619  165.6634 C.3     1  UNL1        0.2086
     19 C         141.9920  138.0982  164.5081 C.3     1  UNL1        0.0650
     20 C         142.4914  138.2633  163.1034 C.3     1  UNL1        0.0726
     21 N         141.5488  138.0997  161.9481 N.3     1  UNL1       -0.2928
     22 C         140.1068  137.7708  162.1975 C.3     1  UNL1        0.1359
     23 C         139.6072  137.6056  163.6023 C.3     1  UNL1        0.2783
     24 F         138.6670  137.3532  164.7434 F       1  UNL1       -0.2028
     25 F         138.3381  137.3543  162.8433 F       1  UNL1       -0.2028
     26 C         140.5498  137.7693  164.7576 C.3     1  UNL1        0.0731
     27 H         141.9248  137.3519  161.3650 H       1  UNL1        0.1234
@<TRIPOS>BOND
     1    11    12    1
     2    12    13   ar
     3    13    14   ar
     4    14     1    1
     5     1     2   ar
     6     2     3   ar
     7     3     4   ar
     8     4     5   ar
     9     5     6   ar
    10     6     7   ar
    11     7     8   ar
    12     8     9   ar
    13     9    17    1
    14    17    18    1
    15    18    19    1
    16    19    20    1
    17    20    21    1
    18    21    22    1
    19    22    23    1
    20    23    24    1
    21    23    25    1
    22    23    26    1
    23     9    10   ar
    24    14    15   ar
    25    15    16   ar
    26    16    12   ar
    27    10     1   ar
    28     8     3   ar
    29    26    19    1
    30    21    27    1
@<TRIPOS>MOLECULE
*****
 27 30 0 0 0
SMALL
GASTEIGER

@<TRIPOS>ATOM
      1 C         142.1987  139.6344  165.9360 C.ar    1  UNL1        0.0890
      2 C         143.3064  139.2741  164.9910 C.ar    1  UNL1        0.0401
      3 C         142.9860  138.8268  163.5954 C.ar    1  UNL1        0.1051
      4 N         144.0938  138.4665  162.6504 N.ar    1  UNL1       -0.2405
      5 C         143.7733  138.0193  161.2550 C.ar    1  UNL1        0.1195
      6 C         142.3452  137.9324  160.8046 C.ar    1  UNL1        0.1197
      7 N         141.2375  138.2928  161.7496 N.ar    1  UNL1       -0.2360
      8 C         141.5579  138.7400  163.1450 C.ar    1  UNL1        0.1519
      9 C         140.4501  139.1003  164.0901 C.ar    1  UNL1        0.2445
     10 N         140.7706  139.5475  165.4855 N.ar    1  UNL1       -0.2102
     11 C         143.2708  142.6856  170.1099 C.3     1  UNL1        0.1538
     12 N         143.0118  141.4842  169.2500 N.ar    1  UNL1       -0.2473
     13 C         142.7070  141.5002  167.7813 C.ar    1  UNL1        0.0982
     14 C         142.5191  140.0816  167.3315 C.ar    1  UNL1        0.0574
     15 C         142.7077  139.1889  168.5220 C.ar    1  UNL1        0.1231
     16 N         143.0123  140.0556  169.7077 N.ar    1  UNL1       -0.1675
     17 O         139.0220  139.0134  163.6396 O.3     1  UNL1       -0.4591
     18 C         137.9956  139.9423  164.2172 C.3     1  UNL1        0.2086
     19 C         138.0288  141.4025  163.8757 C.3     1  UNL1        0.0650
     20 C         137.4885  141.8773  162.5594 C.3     1  UNL1        0.0726
     21 N         137.5217  143.3376  162.2179 N.3     1  UNL1       -0.2928
     22 C         138.0951  144.3229  163.1926 C.3     1  UNL1        0.1359
     23 C         138.6355  143.8481  164.5089 C.3     1  UNL1        0.2783
     24 F         139.2630  143.8848  165.8709 F       1  UNL1       -0.2028
     25 F         138.8866  145.3211  164.6404 F       1  UNL1       -0.2028
     26 C         138.6023  142.3879  164.8505 C.3     1  UNL1        0.0731
     27 H         136.5573  143.6215  162.0451 H       1  UNL1        0.1234
@<TRIPOS>BOND
     1    11    12    1
     2    12    13   ar
     3    13    14   ar
     4    14     1    1
     5     1     2   ar
     6     2     3   ar
     7     3     4   ar
     8     4     5   ar
     9     5     6   ar
    10     6     7   ar
    11     7     8   ar
    12     8     9   ar
    13     9    17    1
    14    17    18    1
    15    18    19    1
    16    19    20    1
    17    20    21    1
    18    21    22    1
    19    22    23    1
    20    23    24    1
    21    23    25    1
    22    23    26    1
    23     9    10   ar
    24    14    15   ar
    25    15    16   ar
    26    16    12   ar
    27    10     1   ar
    28     8     3   ar
    29    26    19    1
    30    21    27    1
@<TRIPOS>MOLECULE
*****
 27 30 0 0 0
SMALL
GASTEIGER

@<TRIPOS>ATOM
      1 C         139.4649  140.3579  166.2487 C.ar    1  UNL1        0.0890
      2 C         139.1995  139.1820  165.3561 C.ar    1  UNL1        0.0401
      3 C         138.6899  139.3986  163.9620 C.ar    1  UNL1        0.1051
      4 N         138.4245  138.2228  163.0693 N.ar    1  UNL1       -0.2405
      5 C         137.9149  138.4394  161.6753 C.ar    1  UNL1        0.1195
      6 C         137.6706  139.8319  161.1740 C.ar    1  UNL1        0.1197
      7 N         137.9360  141.0077  162.0666 N.ar    1  UNL1       -0.2360
      8 C         138.4456  140.7911  163.4606 C.ar    1  UNL1        0.1519
      9 C         138.7110  141.9670  164.3534 C.ar    1  UNL1        0.2445
     10 N         139.2206  141.7504  165.7474 N.ar    1  UNL1       -0.2102
     11 C         142.7047  139.6549  170.3586 C.3     1  UNL1        0.1538
     12 N         141.4637  139.8182  169.5319 N.ar    1  UNL1       -0.2473
     13 C         141.4146  140.0305  168.0477 C.ar    1  UNL1        0.0982
     14 C         139.9745  140.1413  167.6428 C.ar    1  UNL1        0.0574
     15 C         139.1337  139.9976  168.8766 C.ar    1  UNL1        0.1231
     16 N         140.0540  139.7979  170.0441 N.ar    1  UNL1       -0.1675
     17 O         138.4667  143.3595  163.8521 O.3     1  UNL1       -0.4591
     18 C         139.3943  144.4712  164.2439 C.3     1  UNL1        0.2086
     19 C         140.8260  144.4461  163.7970 C.3     1  UNL1        0.0650
     20 C         141.2166  145.0811  162.4954 C.3     1  UNL1        0.0726
     21 N         142.6483  145.0560  162.0485 N.3     1  UNL1       -0.2928
     22 C         143.6893  144.3958  162.9031 C.3     1  UNL1        0.1359
     23 C         143.2987  143.7608  164.2047 C.3     1  UNL1        0.2783
     24 F         143.4199  143.0287  165.5083 F       1  UNL1       -0.2028
     25 F         144.7724  143.4814  164.2105 F       1  UNL1       -0.2028
     26 C         141.8670  143.7859  164.6517 C.3     1  UNL1        0.0731
     27 H         142.9369  146.0271  161.9302 H       1  UNL1        0.1234
@<TRIPOS>BOND
     1    11    12    1
     2    12    13   ar
     3    13    14   ar
     4    14     1    1
     5     1     2   ar
     6     2     3   ar
     7     3     4   ar
     8     4     5   ar
     9     5     6   ar
    10     6     7   ar
    11     7     8   ar
    12     8     9   ar
    13     9    17    1
    14    17    18    1
    15    18    19    1
    16    19    20    1
    17    20    21    1
    18    21    22    1
    19    22    23    1
    20    23    24    1
    21    23    25    1
    22    23    26    1
    23     9    10   ar
    24    14    15   ar
    25    15    16   ar
    26    16    12   ar
    27    10     1   ar
    28     8     3   ar
    29    26    19    1
    30    21    27    1
@<TRIPOS>MOLECULE
*****
 27 30 0 0 0
SMALL
GASTEIGER

@<TRIPOS>ATOM
      1 C         142.7929  141.3534  165.1890 C.ar    1  UNL1        0.0890
      2 C         142.9756  142.0625  166.4981 C.ar    1  UNL1        0.0401
      3 C         142.0043  141.8323  167.6178 C.ar    1  UNL1        0.1051
      4 N         142.1871  142.5413  168.9269 N.ar    1  UNL1       -0.2405
      5 C         141.2157  142.3111  170.0464 C.ar    1  UNL1        0.1195
      6 C         140.0616  141.3719  169.8569 C.ar    1  UNL1        0.1197
      7 N         139.8789  140.6628  168.5478 N.ar    1  UNL1       -0.2360
      8 C         140.8502  140.8930  167.4282 C.ar    1  UNL1        0.1519
      9 C         140.6674  140.1840  166.1190 C.ar    1  UNL1        0.2445
     10 N         141.6388  140.4142  164.9994 N.ar    1  UNL1       -0.2102
     11 C         144.8126  142.5508  160.4595 C.3     1  UNL1        0.1538
     12 N         144.6926  142.1340  161.8954 N.ar    1  UNL1       -0.2473
     13 C         143.4187  142.0363  162.6816 C.ar    1  UNL1        0.0982
     14 C         143.7642  141.5836  164.0693 C.ar    1  UNL1        0.0574
     15 C         145.2514  141.4015  164.1408 C.ar    1  UNL1        0.1231
     16 N         145.8252  141.7417  162.7973 N.ar    1  UNL1       -0.1675
     17 O         139.5133  139.2448  165.9295 O.3     1  UNL1       -0.4591
     18 C         138.1766  139.7755  165.5037 C.3     1  UNL1        0.2086
     19 C         138.0831  140.7440  164.3621 C.3     1  UNL1        0.0650
     20 C         138.1744  140.2489  162.9491 C.3     1  UNL1        0.0726
     21 N         138.0809  141.2173  161.8075 N.3     1  UNL1       -0.2928
     22 C         137.8961  142.6809  162.0788 C.3     1  UNL1        0.1359
     23 C         137.8048  143.1761  163.4919 C.3     1  UNL1        0.2783
     24 F         137.6641  144.1217  164.6478 F       1  UNL1       -0.2028
     25 F         137.6625  144.4730  162.7517 F       1  UNL1       -0.2028
     26 C         137.8983  142.2077  164.6335 C.3     1  UNL1        0.0731
     27 H         137.2903  140.9219  161.2348 H       1  UNL1        0.1234
@<TRIPOS>BOND
     1    11    12    1
     2    12    13   ar
     3    13    14   ar
     4    14     1    1
     5     1     2   ar
     6     2     3   ar
     7     3     4   ar
     8     4     5   ar
     9     5     6   ar
    10     6     7   ar
    11     7     8   ar
    12     8     9   ar
    13     9    17    1
    14    17    18    1
    15    18    19    1
    16    19    20    1
    17    20    21    1
    18    21    22    1
    19    22    23    1
    20    23    24    1
    21    23    25    1
    22    23    26    1
    23     9    10   ar
    24    14    15   ar
    25    15    16   ar
    26    16    12   ar
    27    10     1   ar
    28     8     3   ar
    29    26    19    1
    30    21    27    1
@<TRIPOS>MOLECULE
*****
 27 30 0 0 0
SMALL
GASTEIGER

@<TRIPOS>ATOM
      1 C         141.5016  139.9386  165.3281 C.ar    1  UNL1        0.0890
      2 C         141.6028  139.4772  166.7517 C.ar    1  UNL1        0.0401
      3 C         142.2743  140.3442  167.7752 C.ar    1  UNL1        0.1051
      4 N         142.3755  139.8827  169.1989 N.ar    1  UNL1       -0.2405
      5 C         143.0469  140.7497  170.2223 C.ar    1  UNL1        0.1195
      6 C         143.6171  142.0781  169.8222 C.ar    1  UNL1        0.1197
      7 N         143.5159  142.5396  168.3985 N.ar    1  UNL1       -0.2360
      8 C         142.8445  141.6726  167.3751 C.ar    1  UNL1        0.1519
      9 C         142.7432  142.1341  165.9514 C.ar    1  UNL1        0.2445
     10 N         142.0718  141.2671  164.9279 N.ar    1  UNL1       -0.2102
     11 C         138.0091  138.0887  161.8265 C.3     1  UNL1        0.1538
     12 N         139.2248  138.2213  162.6951 N.ar    1  UNL1       -0.2473
     13 C         139.5098  139.3449  163.6472 C.ar    1  UNL1        0.0982
     14 C         140.8302  139.0717  164.3045 C.ar    1  UNL1        0.0574
     15 C         141.3612  137.7794  163.7587 C.ar    1  UNL1        0.1231
     16 N         140.3690  137.2538  162.7640 N.ar    1  UNL1       -0.1675
     17 O         143.3134  143.4625  165.5512 O.3     1  UNL1       -0.4591
     18 C         143.6523  143.7312  164.1149 C.3     1  UNL1        0.2086
     19 C         142.6069  144.2745  163.1866 C.3     1  UNL1        0.0650
     20 C         142.8952  144.3930  161.7194 C.3     1  UNL1        0.0726
     21 N         141.8498  144.9362  160.7910 N.3     1  UNL1       -0.2928
     22 C         140.5159  145.3609  161.3298 C.3     1  UNL1        0.1359
     23 C         140.2274  145.2424  162.7971 C.3     1  UNL1        0.2783
     24 F         139.4866  145.3221  164.0989 F       1  UNL1       -0.2028
     25 F         138.9247  145.8133  162.3209 F       1  UNL1       -0.2028
     26 C         141.2729  144.6992  163.7255 C.3     1  UNL1        0.0731
     27 H         141.6694  144.2127  160.0950 H       1  UNL1        0.1234
@<TRIPOS>BOND
     1    11    12    1
     2    12    13   ar
     3    13    14   ar
     4    14     1    1
     5     1     2   ar
     6     2     3   ar
     7     3     4   ar
     8     4     5   ar
     9     5     6   ar
    10     6     7   ar
    11     7     8   ar
    12     8     9   ar
    13     9    17    1
    14    17    18    1
    15    18    19    1
    16    19    20    1
    17    20    21    1
    18    21    22    1
    19    22    23    1
    20    23    24    1
    21    23    25    1
    22    23    26    1
    23     9    10   ar
    24    14    15   ar
    25    15    16   ar
    26    16    12   ar
    27    10     1   ar
    28     8     3   ar
    29    26    19    1
    30    21    27    1
@<TRIPOS>MOLECULE
*****
 27 30 0 0 0
SMALL
GASTEIGER

@<TRIPOS>ATOM
      1 C         140.3984  140.2538  166.0932 C.ar    1  UNL1        0.0890
      2 C         139.2058  140.0234  165.2132 C.ar    1  UNL1        0.0401
      3 C         139.3751  139.3573  163.8798 C.ar    1  UNL1        0.1051
      4 N         138.1825  139.1270  162.9997 N.ar    1  UNL1       -0.2405
      5 C         138.3518  138.4609  161.6665 C.ar    1  UNL1        0.1195
      6 C         139.7137  138.0252  161.2133 C.ar    1  UNL1        0.1197
      7 N         140.9063  138.2556  162.0933 N.ar    1  UNL1       -0.2360
      8 C         140.7370  138.9217  163.4266 C.ar    1  UNL1        0.1519
      9 C         141.9297  139.1521  164.3068 C.ar    1  UNL1        0.2445
     10 N         141.7604  139.8181  165.6400 N.ar    1  UNL1       -0.2102
     11 C         140.4878  143.8520  169.9567 C.3     1  UNL1        0.1538
     12 N         140.2703  142.5739  169.2024 N.ar    1  UNL1       -0.2473
     13 C         140.6176  142.3290  167.7637 C.ar    1  UNL1        0.0982
     14 C         140.2292  140.9199  167.4266 C.ar    1  UNL1        0.0574
     15 C         139.6418  140.2939  168.6567 C.ar    1  UNL1        0.1231
     16 N         139.6672  141.3161  169.7542 N.ar    1  UNL1       -0.1675
     17 O         143.2916  138.7164  163.8536 O.3     1  UNL1       -0.4591
     18 C         144.4832  139.5899  164.1124 C.3     1  UNL1        0.2086
     19 C         144.4991  141.0042  163.6130 C.3     1  UNL1        0.0650
     20 C         144.8198  141.2883  162.1755 C.3     1  UNL1        0.0726
     21 N         144.8357  142.7026  161.6760 N.3     1  UNL1       -0.2928
     22 C         144.5309  143.8328  162.6140 C.3     1  UNL1        0.1359
     23 C         144.2102  143.5486  164.0516 C.3     1  UNL1        0.2783
     24 F         143.8519  143.7840  165.4890 F       1  UNL1       -0.2028
     25 F         144.1017  145.0447  164.0513 F       1  UNL1       -0.2028
     26 C         144.1943  142.1343  164.5510 C.3     1  UNL1        0.0731
     27 H         144.1533  142.7555  160.9197 H       1  UNL1        0.1234
@<TRIPOS>BOND
     1    11    12    1
     2    12    13   ar
     3    13    14   ar
     4    14     1    1
     5     1     2   ar
     6     2     3   ar
     7     3     4   ar
     8     4     5   ar
     9     5     6   ar
    10     6     7   ar
    11     7     8   ar
    12     8     9   ar
    13     9    17    1
    14    17    18    1
    15    18    19    1
    16    19    20    1
    17    20    21    1
    18    21    22    1
    19    22    23    1
    20    23    24    1
    21    23    25    1
    22    23    26    1
    23     9    10   ar
    24    14    15   ar
    25    15    16   ar
    26    16    12   ar
    27    10     1   ar
    28     8     3   ar
    29    26    19    1
    30    21    27    1
@<TRIPOS>MOLECULE
*****
 27 30 0 0 0
SMALL
GASTEIGER

@<TRIPOS>ATOM
      1 C         142.8691  142.2962  165.0638 C.ar    1  UNL1        0.0890
      2 C         143.5155  142.6633  166.3666 C.ar    1  UNL1        0.0401
      3 C         142.9405  142.1598  167.6573 C.ar    1  UNL1        0.1051
      4 N         143.5869  142.5269  168.9602 N.ar    1  UNL1       -0.2405
      5 C         143.0118  142.0235  170.2508 C.ar    1  UNL1        0.1195
      6 C         141.7903  141.1529  170.2386 C.ar    1  UNL1        0.1197
      7 N         141.1439  140.7858  168.9358 N.ar    1  UNL1       -0.2360
      8 C         141.7190  141.2893  167.6452 C.ar    1  UNL1        0.1519
      9 C         141.0726  140.9222  166.3423 C.ar    1  UNL1        0.2445
     10 N         141.6477  141.4256  165.0516 N.ar    1  UNL1       -0.2102
     11 C         144.5870  142.5071  160.0752 C.3     1  UNL1        0.1538
     12 N         144.2338  142.8965  161.4801 N.ar    1  UNL1       -0.2473
     13 C         143.6280  141.9989  162.5181 C.ar    1  UNL1        0.0982
     14 C         143.4442  142.7996  163.7731 C.ar    1  UNL1        0.0574
     15 C         143.9365  144.1921  163.5108 C.ar    1  UNL1        0.1231
     16 N         144.4245  144.2520  162.0937 N.ar    1  UNL1       -0.1675
     17 O         139.8511  140.0517  166.3301 O.3     1  UNL1       -0.4591
     18 C         138.5995  140.5251  165.6524 C.3     1  UNL1        0.2086
     19 C         138.3238  140.1366  164.2301 C.3     1  UNL1        0.0650
     20 C         137.4963  141.0310  163.3553 C.3     1  UNL1        0.0726
     21 N         137.2206  140.6426  161.9329 N.3     1  UNL1       -0.2928
     22 C         137.7725  139.3598  161.3853 C.3     1  UNL1        0.1359
     23 C         138.6001  138.4654  162.2601 C.3     1  UNL1        0.2783
     24 F         139.4323  137.2950  162.6931 F       1  UNL1       -0.2028
     25 F         138.6135  137.6705  160.9881 F       1  UNL1       -0.2028
     26 C         138.8757  138.8538  163.6825 C.3     1  UNL1        0.0731
     27 H         137.5846  141.3938  161.3467 H       1  UNL1        0.1234
@<TRIPOS>BOND
     1    11    12    1
     2    12    13   ar
     3    13    14   ar
     4    14     1    1
     5     1     2   ar
     6     2     3   ar
     7     3     4   ar
     8     4     5   ar
     9     5     6   ar
    10     6     7   ar
    11     7     8   ar
    12     8     9   ar
    13     9    17    1
    14    17    18    1
    15    18    19    1
    16    19    20    1
    17    20    21    1
    18    21    22    1
    19    22    23    1
    20    23    24    1
    21    23    25    1
    22    23    26    1
    23     9    10   ar
    24    14    15   ar
    25    15    16   ar
    26    16    12   ar
    27    10     1   ar
    28     8     3   ar
    29    26    19    1
    30    21    27    1
