@<TRIPOS>MOLECULE
*****
 32 35 0 0 0
SMALL
GASTEIGER

@<TRIPOS>ATOM
      1 O         140.2181  137.4158  162.4674 O.2     1  UNL1       -0.2522
      2 C         140.1256  138.9129  162.4529 C.2     1  UNL1        0.3079
      3 N         139.6616  139.6475  163.6757 N.am    1  UNL1       -0.2844
      4 N         140.4971  139.6754  161.2158 N.am    1  UNL1       -0.2448
      5 H         139.6009  140.6301  163.6662 H       1  UNL1        0.1513
      6 C         140.4046  141.1725  161.2013 C.ar    1  UNL1        0.0552
      7 C         139.1169  141.8407  160.8202 C.ar    1  UNL1        0.0155
      8 C         139.0244  143.3377  160.8058 C.ar    1  UNL1        0.0080
      9 C         140.2196  144.1666  161.1724 C.ar    1  UNL1        0.0346
     10 BR        140.1271  145.6637  161.1579 Br      1  UNL1       -0.0490
     11 C         141.5073  143.4984  161.5534 C.ar    1  UNL1        0.0080
     12 C         141.5998  142.0013  161.5679 C.ar    1  UNL1        0.0155
     13 C         140.9611  138.9408  159.9931 C.3     1  UNL1        0.0840
     14 C         142.3893  138.4956  159.8824 C.3     1  UNL1        0.0376
     15 C         142.8533  137.7610  158.6598 C.3     1  UNL1        0.0741
     16 N         141.8892  137.4715  157.5477 N.3     1  UNL1       -0.2688
     17 C         140.4611  137.9166  157.6583 C.3     1  UNL1        0.0741
     18 C         139.9970  138.6513  158.8810 C.3     1  UNL1        0.0376
     19 C         142.3532  136.7369  156.3250 C.3     1  UNL1        0.1008
     20 C         142.2566  135.2411  156.2670 C.ar    1  UNL1        0.0164
     21 C         141.3564  134.5861  155.2616 C.ar    1  UNL1        0.0212
     22 C         141.2598  133.0904  155.2035 C.ar    1  UNL1        0.1219
     23 N         142.0634  132.2495  156.1508 N.ar    1  UNL1       -0.1464
     24 N         142.9636  132.9045  157.1561 N.ar    1  UNL1       -0.1466
     25 C         143.0602  134.4003  157.2142 C.ar    1  UNL1        0.1192
     26 C         139.2901  138.8851  164.9129 C.3     1  UNL1        0.1177
     27 C         139.8236  139.3149  166.2473 C.ar    1  UNL1       -0.0025
     28 C         141.3010  139.4814  166.4462 C.ar    1  UNL1       -0.0026
     29 C         141.8344  139.9112  167.7806 C.ar    1  UNL1       -0.0003
     30 C         140.8904  140.1745  168.9162 C.ar    1  UNL1       -0.0000
     31 C         139.4130  140.0081  168.7173 C.ar    1  UNL1       -0.0003
     32 C         138.8796  139.5783  167.3829 C.ar    1  UNL1       -0.0026
@<TRIPOS>BOND
     1     1     2    2
     2     2     3   am
     3     3    26    1
     4    26    27    1
     5    27    28   ar
     6    28    29   ar
     7    29    30   ar
     8    30    31   ar
     9    31    32   ar
    10     2     4   am
    11     4     6    1
    12     6     7   ar
    13     7     8   ar
    14     8     9   ar
    15     9    10    1
    16     9    11   ar
    17    11    12   ar
    18     4    13    1
    19    13    14    1
    20    14    15    1
    21    15    16    1
    22    16    19    1
    23    19    20    1
    24    20    21   ar
    25    21    22   ar
    26    22    23   ar
    27    23    24   ar
    28    24    25   ar
    29    16    17    1
    30    17    18    1
    31    32    27   ar
    32    12     6   ar
    33    18    13    1
    34    25    20   ar
    35     3     5    1
@<TRIPOS>MOLECULE
*****
 32 35 0 0 0
SMALL
GASTEIGER

@<TRIPOS>ATOM
      1 O         140.4024  137.5562  162.6579 O.2     1  UNL1       -0.2522
      2 C         140.2741  139.0506  162.6696 C.2     1  UNL1        0.3079
      3 N         139.8591  139.7579  163.9257 N.am    1  UNL1       -0.2844
      4 N         140.5607  139.8378  161.4254 N.am    1  UNL1       -0.2448
      5 H         139.7749  140.7388  163.9334 H       1  UNL1        0.1513
      6 C         140.4324  141.3323  161.4371 C.ar    1  UNL1        0.0552
      7 C         141.6456  142.1875  161.6529 C.ar    1  UNL1        0.0155
      8 C         141.5172  143.6820  161.6646 C.ar    1  UNL1        0.0080
      9 C         140.1757  144.3212  161.4606 C.ar    1  UNL1        0.0346
     10 BR        140.0474  145.8156  161.4724 Br      1  UNL1       -0.0490
     11 C         138.9625  143.4659  161.2448 C.ar    1  UNL1        0.0080
     12 C         139.0908  141.9715  161.2331 C.ar    1  UNL1        0.0155
     13 C         140.9756  139.1305  160.1694 C.3     1  UNL1        0.0840
     14 C         139.9393  138.6973  159.1752 C.3     1  UNL1        0.0376
     15 C         140.3542  137.9901  157.9192 C.3     1  UNL1        0.0741
     16 N         141.8055  137.7159  157.6574 N.3     1  UNL1       -0.2688
     17 C         142.8419  138.1491  158.6515 C.3     1  UNL1        0.0741
     18 C         142.4269  138.8564  159.9075 C.3     1  UNL1        0.0376
     19 C         142.2205  137.0087  156.4014 C.3     1  UNL1        0.1008
     20 C         142.2029  135.5098  156.3439 C.ar    1  UNL1        0.0164
     21 C         141.3482  134.8081  155.3304 C.ar    1  UNL1        0.0212
     22 C         141.3306  133.3094  155.2729 C.ar    1  UNL1        0.1219
     23 N         142.1677  132.5122  156.2289 N.ar    1  UNL1       -0.1464
     24 N         143.0224  133.2139  157.2423 N.ar    1  UNL1       -0.1466
     25 C         143.0400  134.7127  157.2998 C.ar    1  UNL1        0.1192
     26 C         139.5725  138.9708  165.1699 C.3     1  UNL1        0.1177
     27 C         140.2047  139.3678  166.4710 C.ar    1  UNL1       -0.0025
     28 C         139.3432  139.7575  167.6354 C.ar    1  UNL1       -0.0026
     29 C         139.9754  140.1546  168.9363 C.ar    1  UNL1       -0.0003
     30 C         141.4692  140.1619  169.0729 C.ar    1  UNL1       -0.0000
     31 C         142.3307  139.7723  167.9085 C.ar    1  UNL1       -0.0003
     32 C         141.6984  139.3752  166.6075 C.ar    1  UNL1       -0.0026
@<TRIPOS>BOND
     1     1     2    2
     2     2     3   am
     3     3    26    1
     4    26    27    1
     5    27    28   ar
     6    28    29   ar
     7    29    30   ar
     8    30    31   ar
     9    31    32   ar
    10     2     4   am
    11     4     6    1
    12     6     7   ar
    13     7     8   ar
    14     8     9   ar
    15     9    10    1
    16     9    11   ar
    17    11    12   ar
    18     4    13    1
    19    13    14    1
    20    14    15    1
    21    15    16    1
    22    16    19    1
    23    19    20    1
    24    20    21   ar
    25    21    22   ar
    26    22    23   ar
    27    23    24   ar
    28    24    25   ar
    29    16    17    1
    30    17    18    1
    31    32    27   ar
    32    12     6   ar
    33    18    13    1
    34    25    20   ar
    35     3     5    1
@<TRIPOS>MOLECULE
*****
 32 35 0 0 0
SMALL
GASTEIGER

@<TRIPOS>ATOM
      1 O         142.0687  141.0928  158.1408 O.2     1  UNL1       -0.2522
      2 C         141.5314  140.5975  159.4507 C.2     1  UNL1        0.3079
      3 N         141.3688  141.5460  160.6015 N.am    1  UNL1       -0.2844
      4 N         141.1568  139.1539  159.6100 N.am    1  UNL1       -0.2448
      5 H         141.0162  141.2209  161.4613 H       1  UNL1        0.1513
      6 C         140.6195  138.6586  160.9200 C.ar    1  UNL1        0.0552
      7 C         139.1444  138.6993  161.1892 C.ar    1  UNL1        0.0155
      8 C         138.6071  138.2040  162.4991 C.ar    1  UNL1        0.0080
      9 C         139.5449  137.6679  163.5399 C.ar    1  UNL1        0.0346
     10 BR        139.0076  137.1726  164.8499 Br      1  UNL1       -0.0490
     11 C         141.0200  137.6272  163.2707 C.ar    1  UNL1        0.0080
     12 C         141.5572  138.1225  161.9607 C.ar    1  UNL1        0.0155
     13 C         141.3194  138.2055  158.4593 C.3     1  UNL1        0.0840
     14 C         142.6270  137.5022  158.2461 C.3     1  UNL1        0.0376
     15 C         142.7896  136.5538  157.0954 C.3     1  UNL1        0.0741
     16 N         141.6446  136.3088  156.1579 N.3     1  UNL1       -0.2688
     17 C         140.3370  137.0121  156.3711 C.3     1  UNL1        0.0741
     18 C         140.1744  137.9605  157.5218 C.3     1  UNL1        0.0376
     19 C         141.8073  135.3604  155.0072 C.3     1  UNL1        0.1008
     20 C         142.2467  133.9479  155.2558 C.ar    1  UNL1        0.0164
     21 C         143.6894  133.6499  155.5380 C.ar    1  UNL1        0.0212
     22 C         144.1288  132.2374  155.7865 C.ar    1  UNL1        0.1219
     23 N         143.1255  131.1228  155.7529 N.ar    1  UNL1       -0.1464
     24 N         141.6827  131.4208  155.4707 N.ar    1  UNL1       -0.1466
     25 C         141.2433  132.8334  155.2221 C.ar    1  UNL1        0.1192
     26 C         141.7435  142.9896  160.4422 C.3     1  UNL1        0.1177
     27 C         142.2865  143.7570  161.6112 C.ar    1  UNL1       -0.0025
     28 C         141.3809  144.6463  162.4105 C.ar    1  UNL1       -0.0026
     29 C         141.9239  145.4136  163.5794 C.ar    1  UNL1       -0.0003
     30 C         143.3725  145.2915  163.9490 C.ar    1  UNL1       -0.0000
     31 C         144.2781  144.4022  163.1497 C.ar    1  UNL1       -0.0003
     32 C         143.7351  143.6349  161.9808 C.ar    1  UNL1       -0.0026
@<TRIPOS>BOND
     1     1     2    2
     2     2     3   am
     3     3    26    1
     4    26    27    1
     5    27    28   ar
     6    28    29   ar
     7    29    30   ar
     8    30    31   ar
     9    31    32   ar
    10     2     4   am
    11     4     6    1
    12     6     7   ar
    13     7     8   ar
    14     8     9   ar
    15     9    10    1
    16     9    11   ar
    17    11    12   ar
    18     4    13    1
    19    13    14    1
    20    14    15    1
    21    15    16    1
    22    16    19    1
    23    19    20    1
    24    20    21   ar
    25    21    22   ar
    26    22    23   ar
    27    23    24   ar
    28    24    25   ar
    29    16    17    1
    30    17    18    1
    31    32    27   ar
    32    12     6   ar
    33    18    13    1
    34    25    20   ar
    35     3     5    1
@<TRIPOS>MOLECULE
*****
 32 35 0 0 0
SMALL
GASTEIGER

@<TRIPOS>ATOM
      1 O         142.6916  138.1036  162.7252 O.2     1  UNL1       -0.2522
      2 C         142.2313  139.5273  162.8312 C.2     1  UNL1        0.3079
      3 N         142.2196  140.2144  164.1645 N.am    1  UNL1       -0.2844
      4 N         141.7827  140.2638  161.6039 N.am    1  UNL1       -0.2448
      5 H         141.9176  141.1489  164.2341 H       1  UNL1        0.1513
      6 C         141.3225  141.6875  161.7099 C.ar    1  UNL1        0.0552
      7 C         142.2813  142.8080  161.4363 C.ar    1  UNL1        0.0155
      8 C         141.8211  144.2317  161.5423 C.ar    1  UNL1        0.0080
      9 C         140.4019  144.5349  161.9219 C.ar    1  UNL1        0.0346
     10 BR        139.9417  145.9586  162.0278 Br      1  UNL1       -0.0490
     11 C         139.4431  143.4144  162.1955 C.ar    1  UNL1        0.0080
     12 C         139.9033  141.9907  162.0895 C.ar    1  UNL1        0.0155
     13 C         141.7944  139.5766  160.2707 C.3     1  UNL1        0.0840
     14 C         143.0424  139.5756  159.4383 C.3     1  UNL1        0.0376
     15 C         143.0540  138.8884  158.1051 C.3     1  UNL1        0.0741
     16 N         141.8178  138.2023  157.6041 N.3     1  UNL1       -0.2688
     17 C         140.5699  138.2033  158.4363 C.3     1  UNL1        0.0741
     18 C         140.5582  138.8905  159.7697 C.3     1  UNL1        0.0376
     19 C         141.8295  137.5151  156.2708 C.3     1  UNL1        0.1008
     20 C         141.9760  136.0241  156.1968 C.ar    1  UNL1        0.0164
     21 C         142.9780  135.3248  157.0669 C.ar    1  UNL1        0.0212
     22 C         143.1246  133.8338  156.9929 C.ar    1  UNL1        0.1219
     23 N         142.2691  133.0421  156.0487 N.ar    1  UNL1       -0.1464
     24 N         141.2672  133.7413  155.1786 N.ar    1  UNL1       -0.1466
     25 C         141.1206  135.2323  155.2526 C.ar    1  UNL1        0.1192
     26 C         142.6682  139.4779  165.3918 C.3     1  UNL1        0.1177
     27 C         142.7472  140.1924  166.7084 C.ar    1  UNL1       -0.0025
     28 C         142.9811  141.6735  166.7451 C.ar    1  UNL1       -0.0026
     29 C         143.0600  142.3879  168.0617 C.ar    1  UNL1       -0.0003
     30 C         142.9052  141.6211  169.3415 C.ar    1  UNL1       -0.0000
     31 C         142.6713  140.1400  169.3048 C.ar    1  UNL1       -0.0003
     32 C         142.5923  139.4256  167.9883 C.ar    1  UNL1       -0.0026
@<TRIPOS>BOND
     1     1     2    2
     2     2     3   am
     3     3    26    1
     4    26    27    1
     5    27    28   ar
     6    28    29   ar
     7    29    30   ar
     8    30    31   ar
     9    31    32   ar
    10     2     4   am
    11     4     6    1
    12     6     7   ar
    13     7     8   ar
    14     8     9   ar
    15     9    10    1
    16     9    11   ar
    17    11    12   ar
    18     4    13    1
    19    13    14    1
    20    14    15    1
    21    15    16    1
    22    16    19    1
    23    19    20    1
    24    20    21   ar
    25    21    22   ar
    26    22    23   ar
    27    23    24   ar
    28    24    25   ar
    29    16    17    1
    30    17    18    1
    31    32    27   ar
    32    12     6   ar
    33    18    13    1
    34    25    20   ar
    35     3     5    1
@<TRIPOS>MOLECULE
*****
 32 35 0 0 0
SMALL
GASTEIGER

@<TRIPOS>ATOM
      1 O         139.3322  137.6869  161.2909 O.2     1  UNL1       -0.2522
      2 C         139.4199  139.1680  161.0703 C.2     1  UNL1        0.3079
      3 N         138.8309  140.1123  162.0761 N.am    1  UNL1       -0.2844
      4 N         140.0965  139.7049  159.8440 N.am    1  UNL1       -0.2448
      5 H         138.8885  141.0844  161.9314 H       1  UNL1        0.1513
      6 C         140.1842  141.1860  159.6234 C.ar    1  UNL1        0.0552
      7 C         141.2969  141.9729  160.2498 C.ar    1  UNL1        0.0155
      8 C         141.3846  143.4540  160.0292 C.ar    1  UNL1        0.0080
      9 C         140.3596  144.1481  159.1822 C.ar    1  UNL1        0.0346
     10 BR        140.4473  145.6292  158.9616 Br      1  UNL1       -0.0490
     11 C         139.2468  143.3612  158.5558 C.ar    1  UNL1        0.0080
     12 C         139.1591  141.8801  158.7764 C.ar    1  UNL1        0.0155
     13 C         140.6854  138.7606  158.8383 C.3     1  UNL1        0.0840
     14 C         139.8409  138.2418  157.7122 C.3     1  UNL1        0.0376
     15 C         140.4298  137.2976  156.7065 C.3     1  UNL1        0.0741
     16 N         141.8632  136.8721  156.8267 N.3     1  UNL1       -0.2688
     17 C         142.7076  137.3908  157.9526 C.3     1  UNL1        0.0741
     18 C         142.1187  138.3351  158.9584 C.3     1  UNL1        0.0376
     19 C         142.4521  135.9278  155.8210 C.3     1  UNL1        0.1008
     20 C         142.6555  134.4847  156.1763 C.ar    1  UNL1        0.0164
     21 C         143.8247  134.0786  157.0236 C.ar    1  UNL1        0.0212
     22 C         144.0281  132.6356  157.3790 C.ar    1  UNL1        0.1219
     23 N         143.0623  131.5987  156.8870 N.ar    1  UNL1       -0.1464
     24 N         141.8931  132.0048  156.0397 N.ar    1  UNL1       -0.1466
     25 C         141.6897  133.4479  155.6843 C.ar    1  UNL1        0.1192
     26 C         138.1543  139.5754  163.3025 C.3     1  UNL1        0.1177
     27 C         138.6869  139.9160  164.6628 C.ar    1  UNL1       -0.0025
     28 C         138.2718  139.1061  165.8551 C.ar    1  UNL1       -0.0026
     29 C         138.8044  139.4467  167.2154 C.ar    1  UNL1       -0.0003
     30 C         139.7521  140.5972  167.3833 C.ar    1  UNL1       -0.0000
     31 C         140.1673  141.4071  166.1910 C.ar    1  UNL1       -0.0003
     32 C         139.6347  141.0665  164.8307 C.ar    1  UNL1       -0.0026
@<TRIPOS>BOND
     1     1     2    2
     2     2     3   am
     3     3    26    1
     4    26    27    1
     5    27    28   ar
     6    28    29   ar
     7    29    30   ar
     8    30    31   ar
     9    31    32   ar
    10     2     4   am
    11     4     6    1
    12     6     7   ar
    13     7     8   ar
    14     8     9   ar
    15     9    10    1
    16     9    11   ar
    17    11    12   ar
    18     4    13    1
    19    13    14    1
    20    14    15    1
    21    15    16    1
    22    16    19    1
    23    19    20    1
    24    20    21   ar
    25    21    22   ar
    26    22    23   ar
    27    23    24   ar
    28    24    25   ar
    29    16    17    1
    30    17    18    1
    31    32    27   ar
    32    12     6   ar
    33    18    13    1
    34    25    20   ar
    35     3     5    1
@<TRIPOS>MOLECULE
*****
 32 35 0 0 0
SMALL
GASTEIGER

@<TRIPOS>ATOM
      1 O         141.6824  137.7012  162.6375 O.2     1  UNL1       -0.2522
      2 C         141.5735  139.0078  161.9088 C.2     1  UNL1        0.3079
      3 N         142.0257  139.1110  160.4823 N.am    1  UNL1       -0.2844
      4 N         141.0123  140.2112  162.6066 N.am    1  UNL1       -0.2448
      5 H         141.9542  139.9686  160.0040 H       1  UNL1        0.1513
      6 C         140.9033  141.5178  161.8780 C.ar    1  UNL1        0.0552
      7 C         139.6657  141.8380  161.0933 C.ar    1  UNL1        0.0155
      8 C         139.5567  143.1445  160.3646 C.ar    1  UNL1        0.0080
      9 C         140.6853  144.1310  160.4206 C.ar    1  UNL1        0.0346
     10 BR        140.5763  145.4375  159.6920 Br      1  UNL1       -0.0490
     11 C         141.9229  143.8108  161.2053 C.ar    1  UNL1        0.0080
     12 C         142.0319  142.5042  161.9340 C.ar    1  UNL1        0.0155
     13 C         140.5601  140.1080  164.0331 C.3     1  UNL1        0.0840
     14 C         141.5726  140.0171  165.1362 C.3     1  UNL1        0.0376
     15 C         141.1204  139.9139  166.5626 C.3     1  UNL1        0.0741
     16 N         139.6557  139.9015  166.8861 N.3     1  UNL1       -0.2688
     17 C         138.6432  139.9923  165.7831 C.3     1  UNL1        0.0741
     18 C         139.0954  140.0956  164.3565 C.3     1  UNL1        0.0376
     19 C         139.2035  139.7983  168.3125 C.3     1  UNL1        0.1008
     20 C         139.8307  140.6663  169.3629 C.ar    1  UNL1        0.0164
     21 C         140.1093  142.1115  169.0732 C.ar    1  UNL1        0.0212
     22 C         140.7365  142.9795  170.1235 C.ar    1  UNL1        0.1219
     23 N         141.0851  142.4025  171.4635 N.ar    1  UNL1       -0.1464
     24 N         140.8065  140.9573  171.7531 N.ar    1  UNL1       -0.1466
     25 C         140.1793  140.0892  170.7028 C.ar    1  UNL1        0.1192
     26 C         142.5869  137.9077  159.7845 C.3     1  UNL1        0.1177
     27 C         142.8084  137.9362  158.3012 C.ar    1  UNL1       -0.0025
     28 C         143.0122  139.2455  157.5983 C.ar    1  UNL1       -0.0026
     29 C         143.2337  139.2740  156.1151 C.ar    1  UNL1       -0.0003
     30 C         143.2513  137.9931  155.3347 C.ar    1  UNL1       -0.0000
     31 C         143.0475  136.6838  156.0375 C.ar    1  UNL1       -0.0003
     32 C         142.8260  136.6553  157.5208 C.ar    1  UNL1       -0.0026
@<TRIPOS>BOND
     1     1     2    2
     2     2     3   am
     3     3    26    1
     4    26    27    1
     5    27    28   ar
     6    28    29   ar
     7    29    30   ar
     8    30    31   ar
     9    31    32   ar
    10     2     4   am
    11     4     6    1
    12     6     7   ar
    13     7     8   ar
    14     8     9   ar
    15     9    10    1
    16     9    11   ar
    17    11    12   ar
    18     4    13    1
    19    13    14    1
    20    14    15    1
    21    15    16    1
    22    16    19    1
    23    19    20    1
    24    20    21   ar
    25    21    22   ar
    26    22    23   ar
    27    23    24   ar
    28    24    25   ar
    29    16    17    1
    30    17    18    1
    31    32    27   ar
    32    12     6   ar
    33    18    13    1
    34    25    20   ar
    35     3     5    1
@<TRIPOS>MOLECULE
*****
 32 35 0 0 0
SMALL
GASTEIGER

@<TRIPOS>ATOM
      1 O         141.6132  145.2535  162.3844 O.2     1  UNL1       -0.2522
      2 C         141.7522  144.0346  161.5213 C.2     1  UNL1        0.3079
      3 N         141.5857  144.1453  160.0346 N.am    1  UNL1       -0.2844
      4 N         142.0579  142.7050  162.1447 N.am    1  UNL1       -0.2448
      5 H         141.6769  143.3453  159.4681 H       1  UNL1        0.1513
      6 C         142.1969  141.4861  161.2816 C.ar    1  UNL1        0.0552
      7 C         143.5384  141.1095  160.7261 C.ar    1  UNL1        0.0155
      8 C         143.6774  139.8906  159.8630 C.ar    1  UNL1        0.0080
      9 C         142.4750  139.0483  159.5553 C.ar    1  UNL1        0.0346
     10 BR        142.6141  137.8294  158.6922 Br      1  UNL1       -0.0490
     11 C         141.1336  139.4249  160.1108 C.ar    1  UNL1        0.0080
     12 C         140.9945  140.6438  160.9739 C.ar    1  UNL1        0.0155
     13 C         142.2244  142.5943  163.6313 C.3     1  UNL1        0.0840
     14 C         143.5988  142.5472  164.2306 C.3     1  UNL1        0.0376
     15 C         143.7653  142.4365  165.7171 C.3     1  UNL1        0.0741
     16 N         142.5576  142.3729  166.6045 N.3     1  UNL1       -0.2688
     17 C         141.1834  142.4200  166.0053 C.3     1  UNL1        0.0741
     18 C         141.0167  142.5307  164.5186 C.3     1  UNL1        0.0376
     19 C         142.7242  142.2622  168.0911 C.3     1  UNL1        0.1008
     20 C         141.5171  142.2365  168.9812 C.ar    1  UNL1        0.0164
     21 C         140.7395  140.9655  169.1539 C.ar    1  UNL1        0.0212
     22 C         139.5324  140.9399  170.0440 C.ar    1  UNL1        0.1219
     23 N         139.1029  142.1852  170.7615 N.ar    1  UNL1       -0.1464
     24 N         139.8805  143.4562  170.5888 N.ar    1  UNL1       -0.1466
     25 C         141.0877  143.4819  169.6986 C.ar    1  UNL1        0.1192
     26 C         141.2800  145.4749  159.4112 C.3     1  UNL1        0.1177
     27 C         141.2184  145.6068  157.9182 C.ar    1  UNL1       -0.0025
     28 C         142.3168  145.0391  157.0691 C.ar    1  UNL1       -0.0026
     29 C         142.2551  145.1710  155.5762 C.ar    1  UNL1       -0.0003
     30 C         141.0950  145.8707  154.9324 C.ar    1  UNL1       -0.0000
     31 C         139.9966  146.4385  155.7815 C.ar    1  UNL1       -0.0003
     32 C         140.0582  146.3066  157.2744 C.ar    1  UNL1       -0.0026
@<TRIPOS>BOND
     1     1     2    2
     2     2     3   am
     3     3    26    1
     4    26    27    1
     5    27    28   ar
     6    28    29   ar
     7    29    30   ar
     8    30    31   ar
     9    31    32   ar
    10     2     4   am
    11     4     6    1
    12     6     7   ar
    13     7     8   ar
    14     8     9   ar
    15     9    10    1
    16     9    11   ar
    17    11    12   ar
    18     4    13    1
    19    13    14    1
    20    14    15    1
    21    15    16    1
    22    16    19    1
    23    19    20    1
    24    20    21   ar
    25    21    22   ar
    26    22    23   ar
    27    23    24   ar
    28    24    25   ar
    29    16    17    1
    30    17    18    1
    31    32    27   ar
    32    12     6   ar
    33    18    13    1
    34    25    20   ar
    35     3     5    1
@<TRIPOS>MOLECULE
*****
 32 35 0 0 0
SMALL
GASTEIGER

@<TRIPOS>ATOM
      1 O         142.1684  144.0960  159.8479 O.2     1  UNL1       -0.2522
      2 C         143.0630  143.8513  158.6690 C.2     1  UNL1        0.3079
      3 N         142.9580  144.7244  157.4538 N.am    1  UNL1       -0.2844
      4 N         144.0627  142.7336  158.7054 N.am    1  UNL1       -0.2448
      5 H         143.5452  144.5638  156.6801 H       1  UNL1        0.1513
      6 C         144.9574  142.4890  157.5266 C.ar    1  UNL1        0.0552
      7 C         146.4227  142.7953  157.6208 C.ar    1  UNL1        0.0155
      8 C         147.3174  142.5506  156.4419 C.ar    1  UNL1        0.0080
      9 C         146.7467  141.9996  155.1689 C.ar    1  UNL1        0.0346
     10 BR        147.6414  141.7549  153.9900 Br      1  UNL1       -0.0490
     11 C         145.2814  141.6932  155.0747 C.ar    1  UNL1        0.0080
     12 C         144.3867  141.9379  156.2535 C.ar    1  UNL1        0.0155
     13 C         144.1677  141.8606  159.9206 C.3     1  UNL1        0.0840
     14 C         144.8274  142.3810  161.1633 C.3     1  UNL1        0.0376
     15 C         144.9324  141.5080  162.3785 C.3     1  UNL1        0.0741
     16 N         144.3777  140.1146  162.3512 N.3     1  UNL1       -0.2688
     17 C         143.7180  139.5942  161.1086 C.3     1  UNL1        0.0741
     18 C         143.6130  140.4672  159.8933 C.3     1  UNL1        0.0376
     19 C         144.4827  139.2416  163.5664 C.3     1  UNL1        0.1008
     20 C         143.5241  139.4236  164.7057 C.ar    1  UNL1        0.0164
     21 C         143.8128  138.7947  166.0365 C.ar    1  UNL1        0.0212
     22 C         142.8543  138.9766  167.1758 C.ar    1  UNL1        0.1219
     23 N         141.6069  139.7875  166.9843 N.ar    1  UNL1       -0.1464
     24 N         141.3181  140.4164  165.6535 N.ar    1  UNL1       -0.1466
     25 C         142.2768  140.2344  164.5142 C.ar    1  UNL1        0.1192
     26 C         141.9583  145.8421  157.4174 C.3     1  UNL1        0.1177
     27 C         140.6661  145.6688  156.6756 C.ar    1  UNL1       -0.0025
     28 C         140.0512  144.3066  156.5484 C.ar    1  UNL1       -0.0026
     29 C         138.7591  144.1333  155.8066 C.ar    1  UNL1       -0.0003
     30 C         138.0819  145.3222  155.1920 C.ar    1  UNL1       -0.0000
     31 C         138.6968  146.6844  155.3191 C.ar    1  UNL1       -0.0003
     32 C         139.9889  146.8577  156.0609 C.ar    1  UNL1       -0.0026
@<TRIPOS>BOND
     1     1     2    2
     2     2     3   am
     3     3    26    1
     4    26    27    1
     5    27    28   ar
     6    28    29   ar
     7    29    30   ar
     8    30    31   ar
     9    31    32   ar
    10     2     4   am
    11     4     6    1
    12     6     7   ar
    13     7     8   ar
    14     8     9   ar
    15     9    10    1
    16     9    11   ar
    17    11    12   ar
    18     4    13    1
    19    13    14    1
    20    14    15    1
    21    15    16    1
    22    16    19    1
    23    19    20    1
    24    20    21   ar
    25    21    22   ar
    26    22    23   ar
    27    23    24   ar
    28    24    25   ar
    29    16    17    1
    30    17    18    1
    31    32    27   ar
    32    12     6   ar
    33    18    13    1
    34    25    20   ar
    35     3     5    1
@<TRIPOS>MOLECULE
*****
 32 35 0 0 0
SMALL
GASTEIGER

@<TRIPOS>ATOM
      1 O         139.4160  138.3159  160.0741 O.2     1  UNL1       -0.2522
      2 C         138.9274  139.5077  159.3055 C.2     1  UNL1        0.3079
      3 N         138.0685  140.5352  159.9812 N.am    1  UNL1       -0.2844
      4 N         139.2975  139.6720  157.8612 N.am    1  UNL1       -0.2448
      5 H         137.7478  141.3175  159.4768 H       1  UNL1        0.1513
      6 C         138.8088  140.8638  157.0926 C.ar    1  UNL1        0.0552
      7 C         137.4932  140.8052  156.3745 C.ar    1  UNL1        0.0155
      8 C         137.0046  141.9970  155.6059 C.ar    1  UNL1        0.0080
      9 C         137.8315  143.2474  155.5554 C.ar    1  UNL1        0.0346
     10 BR        137.3428  144.4393  154.7868 Br      1  UNL1       -0.0490
     11 C         139.1471  143.3060  156.2735 C.ar    1  UNL1        0.0080
     12 C         139.6357  142.1142  157.0421 C.ar    1  UNL1        0.0155
     13 C         140.1563  138.6444  157.1856 C.3     1  UNL1        0.0840
     14 C         139.5257  137.5814  156.3356 C.3     1  UNL1        0.0376
     15 C         140.3845  136.5539  155.6600 C.3     1  UNL1        0.0741
     16 N         141.8739  136.5893  155.8342 N.3     1  UNL1       -0.2688
     17 C         142.5046  137.6523  156.6841 C.3     1  UNL1        0.0741
     18 C         141.6457  138.6799  157.3598 C.3     1  UNL1        0.0376
     19 C         142.7328  135.5618  155.1585 C.3     1  UNL1        0.1008
     20 C         142.8663  134.1897  155.7499 C.ar    1  UNL1        0.0164
     21 C         141.9936  133.0730  155.2584 C.ar    1  UNL1        0.0212
     22 C         142.1271  131.7010  155.8497 C.ar    1  UNL1        0.1219
     23 N         143.1334  131.4455  156.9324 N.ar    1  UNL1       -0.1464
     24 N         144.0061  132.5622  157.4239 N.ar    1  UNL1       -0.1466
     25 C         143.8725  133.9343  156.8325 C.ar    1  UNL1        0.1192
     26 C         137.6984  140.3710  161.4255 C.3     1  UNL1        0.1177
     27 C         137.8089  141.5349  162.3652 C.ar    1  UNL1       -0.0025
     28 C         137.9431  142.9268  161.8225 C.ar    1  UNL1       -0.0026
     29 C         138.0537  144.0907  162.7622 C.ar    1  UNL1       -0.0003
     30 C         138.0301  143.8627  164.2446 C.ar    1  UNL1       -0.0000
     31 C         137.8960  142.4708  164.7873 C.ar    1  UNL1       -0.0003
     32 C         137.7854  141.3069  163.8476 C.ar    1  UNL1       -0.0026
@<TRIPOS>BOND
     1     1     2    2
     2     2     3   am
     3     3    26    1
     4    26    27    1
     5    27    28   ar
     6    28    29   ar
     7    29    30   ar
     8    30    31   ar
     9    31    32   ar
    10     2     4   am
    11     4     6    1
    12     6     7   ar
    13     7     8   ar
    14     8     9   ar
    15     9    10    1
    16     9    11   ar
    17    11    12   ar
    18     4    13    1
    19    13    14    1
    20    14    15    1
    21    15    16    1
    22    16    19    1
    23    19    20    1
    24    20    21   ar
    25    21    22   ar
    26    22    23   ar
    27    23    24   ar
    28    24    25   ar
    29    16    17    1
    30    17    18    1
    31    32    27   ar
    32    12     6   ar
    33    18    13    1
    34    25    20   ar
    35     3     5    1
