@<TRIPOS>MOLECULE
*****
 33 36 0 0 0
SMALL
GASTEIGER

@<TRIPOS>ATOM
      1 C         137.9887  140.1811  161.7902 C.3     1  UNL1        0.0570
      2 C         137.7025  140.3589  163.2519 C.3     1  UNL1        0.0331
      3 C         137.6556  141.7359  163.8450 C.3     1  UNL1        0.0735
      4 N         137.8950  142.9351  162.9762 N.3     1  UNL1       -0.2710
      5 C         138.1812  142.7573  161.5146 C.3     1  UNL1        0.0735
      6 C         138.2281  141.3803  160.9216 C.3     1  UNL1        0.0331
      7 N         138.0356  138.8041  161.1972 N.3     1  UNL1       -0.2934
      8 H         137.4118  138.2216  161.7557 H       1  UNL1        0.1236
      9 C         139.3416  138.0725  161.1021 C.3     1  UNL1        0.1151
     10 C         143.9154  139.3752  163.1957 C.3     1  UNL1        0.0528
     11 C         142.5719  138.7188  163.3151 C.ar    1  UNL1        0.0686
     12 N         141.6285  138.7238  162.1489 N.ar    1  UNL1       -0.2519
     13 C         140.2851  138.0674  162.2682 C.ar    1  UNL1        0.0746
     14 C         139.8851  137.4059  163.5537 C.ar    1  UNL1        0.0168
     15 C         140.8285  137.4008  164.7198 C.ar    1  UNL1        0.0127
     16 C         142.1720  138.0573  164.6005 C.ar    1  UNL1        0.0820
     17 C         143.1154  138.0522  165.7666 C.1     1  UNL1        0.1016
     18 N         144.0589  138.0471  166.9328 N.1     1  UNL1       -0.1908
     19 C         137.8481  144.3121  163.5693 C.3     1  UNL1        0.0970
     20 C         138.8617  144.7211  164.5967 C.3     1  UNL1        0.1263
     21 N         140.3099  144.3857  164.3965 N.ar    1  UNL1       -0.2941
     22 C         141.1097  145.1076  163.3530 C.ar    1  UNL1        0.2610
     23 O         140.4613  146.1651  162.5095 O.2     1  UNL1       -0.2670
     24 C         142.5580  144.7721  163.1528 C.ar    1  UNL1        0.0608
     25 C         143.2064  143.7147  163.9962 C.ar    1  UNL1        0.0063
     26 C         142.4066  142.9927  165.0399 C.ar    1  UNL1        0.0161
     27 C         143.0550  141.9354  165.8833 C.ar    1  UNL1        0.0021
     28 C         142.2552  141.2134  166.9269 C.ar    1  UNL1        0.0104
     29 C         140.8070  141.5489  167.1270 C.ar    1  UNL1        0.0699
     30 C         140.1585  142.6063  166.2836 C.ar    1  UNL1        0.0275
     31 C         140.9583  143.3282  165.2400 C.ar    1  UNL1        0.0631
     32 C         140.0072  140.8269  168.1707 C.1     1  UNL1        0.1005
     33 N         139.2074  140.1049  169.2142 N.1     1  UNL1       -0.1908
@<TRIPOS>BOND
     1    10    11    1
     2    11    12   ar
     3    12    13   ar
     4    13     9    1
     5     9     7    1
     6     7     1    1
     7     1     2    1
     8     2     3    1
     9     3     4    1
    10     4    19    1
    11    19    20    1
    12    20    21    1
    13    21    22   ar
    14    22    23    2
    15    22    24   ar
    16    24    25   ar
    17    25    26   ar
    18    26    27   ar
    19    27    28   ar
    20    28    29   ar
    21    29    32    1
    22    32    33    3
    23    29    30   ar
    24    30    31   ar
    25     4     5    1
    26     5     6    1
    27    13    14   ar
    28    14    15   ar
    29    15    16   ar
    30    16    17    1
    31    17    18    3
    32    16    11   ar
    33     6     1    1
    34    31    21   ar
    35    31    26   ar
    36     7     8    1
@<TRIPOS>MOLECULE
*****
 33 36 0 0 0
SMALL
GASTEIGER

@<TRIPOS>ATOM
      1 C         138.4284  144.1382  162.7585 C.3     1  UNL1        0.0570
      2 C         138.2631  144.0426  164.2464 C.3     1  UNL1        0.0331
      3 C         138.1058  142.7012  164.8989 C.3     1  UNL1        0.0735
      4 N         138.1137  141.4553  164.0635 N.3     1  UNL1       -0.2710
      5 C         138.2789  141.5509  162.5757 C.3     1  UNL1        0.0735
      6 C         138.4363  142.8924  161.9232 C.3     1  UNL1        0.0331
      7 N         138.5857  145.4797  162.1061 N.3     1  UNL1       -0.2934
      8 H         138.1524  145.4118  161.1852 H       1  UNL1        0.1236
      9 C         139.9545  146.0571  161.8991 C.3     1  UNL1        0.1151
     10 C         143.5118  142.7215  160.1049 C.3     1  UNL1        0.0528
     11 C         142.9480  143.5392  161.2290 C.ar    1  UNL1        0.0686
     12 N         141.7331  144.3893  161.0021 N.ar    1  UNL1       -0.2519
     13 C         141.1693  145.2070  162.1261 C.ar    1  UNL1        0.0746
     14 C         141.8203  145.1746  163.4770 C.ar    1  UNL1        0.0168
     15 C         143.0351  144.3244  163.7039 C.ar    1  UNL1        0.0127
     16 C         143.5990  143.5068  162.5799 C.ar    1  UNL1        0.0820
     17 C         144.8138  142.6566  162.8068 C.1     1  UNL1        0.1016
     18 N         146.0286  141.8065  163.0338 N.1     1  UNL1       -0.1908
     19 C         137.9563  140.1138  164.7159 C.3     1  UNL1        0.0970
     20 C         138.9316  139.6717  165.7664 C.3     1  UNL1        0.1263
     21 N         140.3783  140.0519  165.6542 N.ar    1  UNL1       -0.2941
     22 C         141.1919  139.5713  164.4893 C.ar    1  UNL1        0.2610
     23 O         140.5588  138.7106  163.4365 O.2     1  UNL1       -0.2670
     24 C         142.6386  139.9515  164.3771 C.ar    1  UNL1        0.0608
     25 C         143.2717  140.8123  165.4299 C.ar    1  UNL1        0.0063
     26 C         142.4581  141.2929  166.5949 C.ar    1  UNL1        0.0161
     27 C         143.0911  142.1536  167.6476 C.ar    1  UNL1        0.0021
     28 C         142.2776  142.6342  168.8125 C.ar    1  UNL1        0.0104
     29 C         140.8309  142.2540  168.9247 C.ar    1  UNL1        0.0699
     30 C         140.1978  141.3933  167.8720 C.ar    1  UNL1        0.0275
     31 C         141.0114  140.9127  166.7070 C.ar    1  UNL1        0.0631
     32 C         140.0173  142.7346  170.0897 C.1     1  UNL1        0.1005
     33 N         139.2038  143.2152  171.2546 N.1     1  UNL1       -0.1908
@<TRIPOS>BOND
     1    10    11    1
     2    11    12   ar
     3    12    13   ar
     4    13     9    1
     5     9     7    1
     6     7     1    1
     7     1     2    1
     8     2     3    1
     9     3     4    1
    10     4    19    1
    11    19    20    1
    12    20    21    1
    13    21    22   ar
    14    22    23    2
    15    22    24   ar
    16    24    25   ar
    17    25    26   ar
    18    26    27   ar
    19    27    28   ar
    20    28    29   ar
    21    29    32    1
    22    32    33    3
    23    29    30   ar
    24    30    31   ar
    25     4     5    1
    26     5     6    1
    27    13    14   ar
    28    14    15   ar
    29    15    16   ar
    30    16    17    1
    31    17    18    3
    32    16    11   ar
    33     6     1    1
    34    31    21   ar
    35    31    26   ar
    36     7     8    1
@<TRIPOS>MOLECULE
*****
 33 36 0 0 0
SMALL
GASTEIGER

@<TRIPOS>ATOM
      1 C         141.4485  138.1115  161.3782 C.3     1  UNL1        0.0570
      2 C         140.4042  137.7003  162.3734 C.3     1  UNL1        0.0331
      3 C         139.1083  138.4514  162.4544 C.3     1  UNL1        0.0735
      4 N         138.8567  139.6137  161.5401 N.3     1  UNL1       -0.2710
      5 C         139.9010  140.0249  160.5450 C.3     1  UNL1        0.0735
      6 C         141.1969  139.2738  160.4641 C.3     1  UNL1        0.0331
      7 N         142.7444  137.3604  161.2973 N.3     1  UNL1       -0.2934
      8 H         142.7492  136.6972  162.0722 H       1  UNL1        0.1236
      9 C         144.0464  138.1029  161.3547 C.3     1  UNL1        0.1151
     10 C         144.6241  143.2295  161.9742 C.3     1  UNL1        0.0528
     11 C         144.4801  141.8578  162.5639 C.ar    1  UNL1        0.0686
     12 N         144.3352  140.6662  161.6645 N.ar    1  UNL1       -0.2519
     13 C         144.1913  139.2945  162.2541 C.ar    1  UNL1        0.0746
     14 C         144.1923  139.1145  163.7432 C.ar    1  UNL1        0.0168
     15 C         144.3372  140.3061  164.6427 C.ar    1  UNL1        0.0127
     16 C         144.4811  141.6778  164.0530 C.ar    1  UNL1        0.0820
     17 C         144.6260  142.8694  164.9525 C.1     1  UNL1        0.1016
     18 N         144.7709  144.0610  165.8520 N.1     1  UNL1       -0.1908
     19 C         137.5609  140.3648  161.6211 C.3     1  UNL1        0.0970
     20 C         137.4622  141.6016  162.4643 C.3     1  UNL1        0.1263
     21 N         138.6681  142.1056  163.2003 N.ar    1  UNL1       -0.2941
     22 C         139.4891  143.2193  162.6210 C.ar    1  UNL1        0.2610
     23 O         139.1042  143.8291  161.3057 O.2     1  UNL1       -0.2670
     24 C         140.6950  143.7234  163.3571 C.ar    1  UNL1        0.0608
     25 C         141.0799  143.1137  164.6724 C.ar    1  UNL1        0.0063
     26 C         140.2589  141.9999  165.2517 C.ar    1  UNL1        0.0161
     27 C         140.6439  141.3902  166.5670 C.ar    1  UNL1        0.0021
     28 C         139.8229  140.2765  167.1463 C.ar    1  UNL1        0.0104
     29 C         138.6170  139.7724  166.4102 C.ar    1  UNL1        0.0699
     30 C         138.2321  140.3821  165.0949 C.ar    1  UNL1        0.0275
     31 C         139.0530  141.4958  164.5157 C.ar    1  UNL1        0.0631
     32 C         137.7960  138.6586  166.9896 C.1     1  UNL1        0.1005
     33 N         136.9751  137.5449  167.5689 N.1     1  UNL1       -0.1908
@<TRIPOS>BOND
     1    10    11    1
     2    11    12   ar
     3    12    13   ar
     4    13     9    1
     5     9     7    1
     6     7     1    1
     7     1     2    1
     8     2     3    1
     9     3     4    1
    10     4    19    1
    11    19    20    1
    12    20    21    1
    13    21    22   ar
    14    22    23    2
    15    22    24   ar
    16    24    25   ar
    17    25    26   ar
    18    26    27   ar
    19    27    28   ar
    20    28    29   ar
    21    29    32    1
    22    32    33    3
    23    29    30   ar
    24    30    31   ar
    25     4     5    1
    26     5     6    1
    27    13    14   ar
    28    14    15   ar
    29    15    16   ar
    30    16    17    1
    31    17    18    3
    32    16    11   ar
    33     6     1    1
    34    31    21   ar
    35    31    26   ar
    36     7     8    1
@<TRIPOS>MOLECULE
*****
 33 36 0 0 0
SMALL
GASTEIGER

@<TRIPOS>ATOM
      1 C         144.2952  139.8577  163.4489 C.3     1  UNL1        0.0570
      2 C         143.4072  139.3348  162.3588 C.3     1  UNL1        0.0331
      3 C         142.1750  138.5530  162.7056 C.3     1  UNL1        0.0735
      4 N         141.8308  138.2939  164.1425 N.3     1  UNL1       -0.2710
      5 C         142.7188  138.8167  165.2324 C.3     1  UNL1        0.0735
      6 C         143.9510  139.5986  164.8856 C.3     1  UNL1        0.0331
      7 N         145.5275  140.6395  163.1021 N.3     1  UNL1       -0.2934
      8 H         146.2850  140.2635  163.6723 H       1  UNL1        0.1236
      9 C         145.5468  142.1284  163.2835 C.3     1  UNL1        0.1151
     10 C         142.0663  143.7449  159.7803 C.3     1  UNL1        0.0528
     11 C         142.5955  143.7505  161.1839 C.ar    1  UNL1        0.0686
     12 N         143.8065  142.9367  161.5320 N.ar    1  UNL1       -0.2519
     13 C         144.3358  142.9422  162.9355 C.ar    1  UNL1        0.0746
     14 C         143.6541  143.7615  163.9909 C.ar    1  UNL1        0.0168
     15 C         142.4430  144.5753  163.6428 C.ar    1  UNL1        0.0127
     16 C         141.9138  144.5698  162.2393 C.ar    1  UNL1        0.0820
     17 C         140.7028  145.3836  161.8912 C.1     1  UNL1        0.1016
     18 N         139.4917  146.1974  161.5431 N.1     1  UNL1       -0.1908
     19 C         140.5986  137.5120  164.4893 C.3     1  UNL1        0.0970
     20 C         139.3360  138.2296  164.8650 C.3     1  UNL1        0.1263
     21 N         138.8973  139.4336  164.0854 N.ar    1  UNL1       -0.2941
     22 C         138.2100  139.2615  162.7634 C.ar    1  UNL1        0.2610
     23 O         137.9613  137.8853  162.2208 O.2     1  UNL1       -0.2670
     24 C         137.7712  140.4655  161.9837 C.ar    1  UNL1        0.0608
     25 C         138.0198  141.8417  162.5262 C.ar    1  UNL1        0.0063
     26 C         138.7072  142.0139  163.8483 C.ar    1  UNL1        0.0161
     27 C         138.9558  143.3901  164.3908 C.ar    1  UNL1        0.0021
     28 C         139.6431  143.5622  165.7129 C.ar    1  UNL1        0.0104
     29 C         140.0818  142.3581  166.4925 C.ar    1  UNL1        0.0699
     30 C         139.8332  140.9820  165.9500 C.ar    1  UNL1        0.0275
     31 C         139.1459  140.8098  164.6280 C.ar    1  UNL1        0.0631
     32 C         140.7692  142.5303  167.8146 C.1     1  UNL1        0.1005
     33 N         141.4566  142.7025  169.1367 N.1     1  UNL1       -0.1908
@<TRIPOS>BOND
     1    10    11    1
     2    11    12   ar
     3    12    13   ar
     4    13     9    1
     5     9     7    1
     6     7     1    1
     7     1     2    1
     8     2     3    1
     9     3     4    1
    10     4    19    1
    11    19    20    1
    12    20    21    1
    13    21    22   ar
    14    22    23    2
    15    22    24   ar
    16    24    25   ar
    17    25    26   ar
    18    26    27   ar
    19    27    28   ar
    20    28    29   ar
    21    29    32    1
    22    32    33    3
    23    29    30   ar
    24    30    31   ar
    25     4     5    1
    26     5     6    1
    27    13    14   ar
    28    14    15   ar
    29    15    16   ar
    30    16    17    1
    31    17    18    3
    32    16    11   ar
    33     6     1    1
    34    31    21   ar
    35    31    26   ar
    36     7     8    1
@<TRIPOS>MOLECULE
*****
 33 36 0 0 0
SMALL
GASTEIGER

@<TRIPOS>ATOM
      1 C         140.1868  144.6848  162.5079 C.3     1  UNL1        0.0570
      2 C         140.9727  143.9099  161.4920 C.3     1  UNL1        0.0331
      3 C         142.4025  143.5487  161.7663 C.3     1  UNL1        0.0735
      4 N         143.0464  143.9624  163.0564 N.3     1  UNL1       -0.2710
      5 C         142.2605  144.7373  164.0722 C.3     1  UNL1        0.0735
      6 C         140.8307  145.0985  163.7979 C.3     1  UNL1        0.0331
      7 N         138.7570  145.0460  162.2337 N.3     1  UNL1       -0.2934
      8 H         138.6379  146.0170  162.5226 H       1  UNL1        0.1236
      9 C         137.6495  144.2643  162.8757 C.3     1  UNL1        0.1151
     10 C         137.7095  139.1618  161.8953 C.3     1  UNL1        0.0528
     11 C         137.9225  140.3052  162.8426 C.ar    1  UNL1        0.0686
     12 N         137.6795  141.7130  162.3856 N.ar    1  UNL1       -0.2519
     13 C         137.8925  142.8564  163.3328 C.ar    1  UNL1        0.0746
     14 C         138.3484  142.5919  164.7371 C.ar    1  UNL1        0.0168
     15 C         138.5913  141.1841  165.1942 C.ar    1  UNL1        0.0127
     16 C         138.3784  140.0407  164.2470 C.ar    1  UNL1        0.0820
     17 C         138.6214  138.6329  164.7040 C.1     1  UNL1        0.1016
     18 N         138.8643  137.2250  165.1611 N.1     1  UNL1       -0.1908
     19 C         144.4762  143.6012  163.3306 C.3     1  UNL1        0.0970
     20 C         144.8005  142.5238  164.3227 C.3     1  UNL1        0.1263
     21 N         143.9524  141.2886  164.3926 N.ar    1  UNL1       -0.2941
     22 C         143.9183  140.3357  163.2346 C.ar    1  UNL1        0.2610
     23 O         144.7323  140.6181  162.0067 O.2     1  UNL1       -0.2670
     24 C         143.0701  139.1005  163.3045 C.ar    1  UNL1        0.0608
     25 C         142.2561  138.8182  164.5323 C.ar    1  UNL1        0.0063
     26 C         142.2901  139.7710  165.6903 C.ar    1  UNL1        0.0161
     27 C         141.4761  139.4887  166.9181 C.ar    1  UNL1        0.0021
     28 C         141.5102  140.4415  168.0761 C.ar    1  UNL1        0.0104
     29 C         142.3584  141.6767  168.0062 C.ar    1  UNL1        0.0699
     30 C         143.1724  141.9591  166.7784 C.ar    1  UNL1        0.0275
     31 C         143.1383  141.0062  165.6205 C.ar    1  UNL1        0.0631
     32 C         142.3924  142.6296  169.1642 C.1     1  UNL1        0.1005
     33 N         142.4265  143.5824  170.3222 N.1     1  UNL1       -0.1908
@<TRIPOS>BOND
     1    10    11    1
     2    11    12   ar
     3    12    13   ar
     4    13     9    1
     5     9     7    1
     6     7     1    1
     7     1     2    1
     8     2     3    1
     9     3     4    1
    10     4    19    1
    11    19    20    1
    12    20    21    1
    13    21    22   ar
    14    22    23    2
    15    22    24   ar
    16    24    25   ar
    17    25    26   ar
    18    26    27   ar
    19    27    28   ar
    20    28    29   ar
    21    29    32    1
    22    32    33    3
    23    29    30   ar
    24    30    31   ar
    25     4     5    1
    26     5     6    1
    27    13    14   ar
    28    14    15   ar
    29    15    16   ar
    30    16    17    1
    31    17    18    3
    32    16    11   ar
    33     6     1    1
    34    31    21   ar
    35    31    26   ar
    36     7     8    1
@<TRIPOS>MOLECULE
*****
 33 36 0 0 0
SMALL
GASTEIGER

@<TRIPOS>ATOM
      1 C         142.4793  138.3423  162.5328 C.3     1  UNL1        0.0570
      2 C         142.9872  138.4341  163.9413 C.3     1  UNL1        0.0331
      3 C         144.0189  139.4618  164.3010 C.3     1  UNL1        0.0735
      4 N         144.5427  140.3977  163.2522 N.3     1  UNL1       -0.2710
      5 C         144.0348  140.3058  161.8438 C.3     1  UNL1        0.0735
      6 C         143.0031  139.2781  161.4841 C.3     1  UNL1        0.0331
      7 N         141.4476  137.3146  162.1732 N.3     1  UNL1       -0.2934
      8 H         141.5592  137.1210  161.1779 H       1  UNL1        0.1236
      9 C         139.9926  137.6019  162.3978 C.3     1  UNL1        0.1151
     10 C         138.5663  141.9665  159.9656 C.3     1  UNL1        0.0528
     11 C         138.7948  141.2027  161.2362 C.ar    1  UNL1        0.0686
     12 N         139.2795  139.7842  161.1817 N.ar    1  UNL1       -0.2519
     13 C         139.5079  139.0204  162.4523 C.ar    1  UNL1        0.0746
     14 C         139.2517  139.6751  163.7773 C.ar    1  UNL1        0.0168
     15 C         138.7671  141.0936  163.8318 C.ar    1  UNL1        0.0127
     16 C         138.5386  141.8574  162.5612 C.ar    1  UNL1        0.0820
     17 C         138.0539  143.2759  162.6157 C.1     1  UNL1        0.1016
     18 N         137.5693  144.6944  162.6702 N.1     1  UNL1       -0.1908
     19 C         145.5745  141.4254  163.6118 C.3     1  UNL1        0.0970
     20 C         145.1969  142.6011  164.4635 C.3     1  UNL1        0.1263
     21 N         143.8078  143.1629  164.3930 N.ar    1  UNL1       -0.2941
     22 C         143.4359  144.1072  163.2885 C.ar    1  UNL1        0.2610
     23 O         144.4530  144.4896  162.2544 O.2     1  UNL1       -0.2670
     24 C         142.0469  144.6690  163.2181 C.ar    1  UNL1        0.0608
     25 C         141.0298  144.2866  164.2521 C.ar    1  UNL1        0.0063
     26 C         141.4017  143.3423  165.3567 C.ar    1  UNL1        0.0161
     27 C         140.3846  142.9598  166.3907 C.ar    1  UNL1        0.0021
     28 C         140.7566  142.0156  167.4952 C.ar    1  UNL1        0.0104
     29 C         142.1456  141.4537  167.5657 C.ar    1  UNL1        0.0699
     30 C         143.1627  141.8362  166.5317 C.ar    1  UNL1        0.0275
     31 C         142.7907  142.7804  165.4271 C.ar    1  UNL1        0.0631
     32 C         142.5175  140.5094  168.6703 C.1     1  UNL1        0.1005
     33 N         142.8894  139.5651  169.7748 N.1     1  UNL1       -0.1908
@<TRIPOS>BOND
     1    10    11    1
     2    11    12   ar
     3    12    13   ar
     4    13     9    1
     5     9     7    1
     6     7     1    1
     7     1     2    1
     8     2     3    1
     9     3     4    1
    10     4    19    1
    11    19    20    1
    12    20    21    1
    13    21    22   ar
    14    22    23    2
    15    22    24   ar
    16    24    25   ar
    17    25    26   ar
    18    26    27   ar
    19    27    28   ar
    20    28    29   ar
    21    29    32    1
    22    32    33    3
    23    29    30   ar
    24    30    31   ar
    25     4     5    1
    26     5     6    1
    27    13    14   ar
    28    14    15   ar
    29    15    16   ar
    30    16    17    1
    31    17    18    3
    32    16    11   ar
    33     6     1    1
    34    31    21   ar
    35    31    26   ar
    36     7     8    1
@<TRIPOS>MOLECULE
*****
 33 36 0 0 0
SMALL
GASTEIGER

@<TRIPOS>ATOM
      1 C         140.7831  144.8676  163.1030 C.3     1  UNL1        0.0570
      2 C         140.6324  144.1011  161.8224 C.3     1  UNL1        0.0331
      3 C         141.8374  143.4986  161.1628 C.3     1  UNL1        0.0735
      4 N         143.1930  143.6625  161.7838 N.3     1  UNL1       -0.2710
      5 C         143.3436  144.4290  163.0643 C.3     1  UNL1        0.0735
      6 C         142.1386  145.0315  163.7239 C.3     1  UNL1        0.0331
      7 N         139.5781  145.4701  163.7626 N.3     1  UNL1       -0.2934
      8 H         139.8394  146.4141  164.0471 H       1  UNL1        0.1236
      9 C         138.9712  144.8081  164.9640 C.3     1  UNL1        0.1151
     10 C         140.7895  140.3269  166.8647 C.3     1  UNL1        0.0528
     11 C         139.8195  141.0710  165.9954 C.ar    1  UNL1        0.0686
     12 N         139.8803  142.5675  165.9143 N.ar    1  UNL1       -0.2519
     13 C         138.9104  143.3115  165.0451 C.ar    1  UNL1        0.0746
     14 C         137.8796  142.5590  164.2571 C.ar    1  UNL1        0.0168
     15 C         137.8188  141.0624  164.3382 C.ar    1  UNL1        0.0127
     16 C         138.7887  140.3184  165.2074 C.ar    1  UNL1        0.0820
     17 C         138.7279  138.8218  165.2885 C.1     1  UNL1        0.1016
     18 N         138.6671  137.3253  165.3696 N.1     1  UNL1       -0.1908
     19 C         144.3979  143.0600  161.1242 C.3     1  UNL1        0.0970
     20 C         144.5012  141.5719  160.9666 C.3     1  UNL1        0.1263
     21 N         144.1847  140.6714  162.1238 N.ar    1  UNL1       -0.2941
     22 C         145.0523  140.6893  163.3473 C.ar    1  UNL1        0.2610
     23 O         146.2366  141.6077  163.4136 O.2     1  UNL1       -0.2670
     24 C         144.7358  139.7889  164.5045 C.ar    1  UNL1        0.0608
     25 C         143.5517  138.8706  164.4382 C.ar    1  UNL1        0.0063
     26 C         142.6840  138.8527  163.2147 C.ar    1  UNL1        0.0161
     27 C         141.4998  137.9344  163.1485 C.ar    1  UNL1        0.0021
     28 C         140.6322  137.9165  161.9251 C.ar    1  UNL1        0.0104
     29 C         140.9487  138.8169  160.7679 C.ar    1  UNL1        0.0699
     30 C         142.1328  139.7352  160.8341 C.ar    1  UNL1        0.0275
     31 C         143.0005  139.7531  162.0575 C.ar    1  UNL1        0.0631
     32 C         140.0810  138.7989  159.5444 C.1     1  UNL1        0.1005
     33 N         139.2133  138.7810  158.3210 N.1     1  UNL1       -0.1908
@<TRIPOS>BOND
     1    10    11    1
     2    11    12   ar
     3    12    13   ar
     4    13     9    1
     5     9     7    1
     6     7     1    1
     7     1     2    1
     8     2     3    1
     9     3     4    1
    10     4    19    1
    11    19    20    1
    12    20    21    1
    13    21    22   ar
    14    22    23    2
    15    22    24   ar
    16    24    25   ar
    17    25    26   ar
    18    26    27   ar
    19    27    28   ar
    20    28    29   ar
    21    29    32    1
    22    32    33    3
    23    29    30   ar
    24    30    31   ar
    25     4     5    1
    26     5     6    1
    27    13    14   ar
    28    14    15   ar
    29    15    16   ar
    30    16    17    1
    31    17    18    3
    32    16    11   ar
    33     6     1    1
    34    31    21   ar
    35    31    26   ar
    36     7     8    1
@<TRIPOS>MOLECULE
*****
 33 36 0 0 0
SMALL
GASTEIGER

@<TRIPOS>ATOM
      1 C         137.9498  140.3237  163.4088 C.3     1  UNL1        0.0570
      2 C         138.1316  139.8519  164.8211 C.3     1  UNL1        0.0331
      3 C         139.1651  138.8116  165.1371 C.3     1  UNL1        0.0735
      4 N         140.0167  138.2432  164.0409 N.3     1  UNL1       -0.2710
      5 C         139.8349  138.7150  162.6287 C.3     1  UNL1        0.0735
      6 C         138.8014  139.7553  162.3127 C.3     1  UNL1        0.0331
      7 N         136.9164  141.3640  163.0928 N.3     1  UNL1       -0.2934
      8 H         136.3072  140.9662  162.3779 H       1  UNL1        0.1236
      9 C         137.3394  142.7154  162.5983 C.3     1  UNL1        0.1151
     10 C         142.2086  143.9357  161.2561 C.3     1  UNL1        0.0528
     11 C         141.1244  143.8683  162.2905 C.ar    1  UNL1        0.0686
     12 N         139.7740  143.3256  161.9273 N.ar    1  UNL1       -0.2519
     13 C         138.6897  143.2581  162.9615 C.ar    1  UNL1        0.0746
     14 C         138.9559  143.7334  164.3591 C.ar    1  UNL1        0.0168
     15 C         140.3062  144.2762  164.7224 C.ar    1  UNL1        0.0127
     16 C         141.3905  144.3436  163.6881 C.ar    1  UNL1        0.0820
     17 C         142.7408  144.8863  164.0513 C.1     1  UNL1        0.1016
     18 N         144.0912  145.4290  164.4146 N.1     1  UNL1       -0.1908
     19 C         141.0501  137.2029  164.3569 C.3     1  UNL1        0.0970
     20 C         142.2919  137.5832  165.1076 C.3     1  UNL1        0.1263
     21 N         142.8427  138.9735  164.9909 N.ar    1  UNL1       -0.2941
     22 C         143.6489  139.3623  163.7873 C.ar    1  UNL1        0.2610
     23 O         143.9043  138.3608  162.7002 O.2     1  UNL1       -0.2670
     24 C         144.1996  140.7527  163.6707 C.ar    1  UNL1        0.0608
     25 C         143.9442  141.7542  164.7577 C.ar    1  UNL1        0.0063
     26 C         143.1379  141.3654  165.9614 C.ar    1  UNL1        0.0161
     27 C         142.8825  142.3669  167.0484 C.ar    1  UNL1        0.0021
     28 C         142.0763  141.9781  168.2521 C.ar    1  UNL1        0.0104
     29 C         141.5255  140.5878  168.3687 C.ar    1  UNL1        0.0699
     30 C         141.7810  139.5862  167.2817 C.ar    1  UNL1        0.0275
     31 C         142.5872  139.9751  166.0780 C.ar    1  UNL1        0.0631
     32 C         140.7193  140.1990  169.5724 C.1     1  UNL1        0.1005
     33 N         139.9131  139.8102  170.7761 N.1     1  UNL1       -0.1908
@<TRIPOS>BOND
     1    10    11    1
     2    11    12   ar
     3    12    13   ar
     4    13     9    1
     5     9     7    1
     6     7     1    1
     7     1     2    1
     8     2     3    1
     9     3     4    1
    10     4    19    1
    11    19    20    1
    12    20    21    1
    13    21    22   ar
    14    22    23    2
    15    22    24   ar
    16    24    25   ar
    17    25    26   ar
    18    26    27   ar
    19    27    28   ar
    20    28    29   ar
    21    29    32    1
    22    32    33    3
    23    29    30   ar
    24    30    31   ar
    25     4     5    1
    26     5     6    1
    27    13    14   ar
    28    14    15   ar
    29    15    16   ar
    30    16    17    1
    31    17    18    3
    32    16    11   ar
    33     6     1    1
    34    31    21   ar
    35    31    26   ar
    36     7     8    1
@<TRIPOS>MOLECULE
*****
 33 36 0 0 0
SMALL
GASTEIGER

@<TRIPOS>ATOM
      1 C         144.0602  139.8378  163.9545 C.3     1  UNL1        0.0570
      2 C         143.6377  139.0928  165.1860 C.3     1  UNL1        0.0331
      3 C         143.0539  139.8375  166.3498 C.3     1  UNL1        0.0735
      4 N         142.8925  141.3273  166.2821 N.3     1  UNL1       -0.2710
      5 C         143.3150  142.0723  165.0506 C.3     1  UNL1        0.0735
      6 C         143.8989  141.3275  163.8868 C.3     1  UNL1        0.0331
      7 N         144.6441  139.0930  162.7907 N.3     1  UNL1       -0.2934
      8 H         144.9397  139.7938  162.1110 H       1  UNL1        0.1236
      9 C         143.8107  138.0923  162.0463 C.3     1  UNL1        0.1151
     10 C         138.6180  137.9325  161.9461 C.3     1  UNL1        0.0528
     11 C         139.9135  138.4314  161.3779 C.ar    1  UNL1        0.0686
     12 N         141.2144  138.0124  161.9962 N.ar    1  UNL1       -0.2519
     13 C         142.5099  138.5113  161.4281 C.ar    1  UNL1        0.0746
     14 C         142.5045  139.4291  160.2417 C.ar    1  UNL1        0.0168
     15 C         141.2037  139.8481  159.6234 C.ar    1  UNL1        0.0127
     16 C         139.9082  139.3492  160.1916 C.ar    1  UNL1        0.0820
     17 C         138.6073  139.7682  159.5733 C.1     1  UNL1        0.1016
     18 N         137.3065  140.1872  158.9550 N.1     1  UNL1       -0.1908
     19 C         142.3087  142.0721  167.4459 C.3     1  UNL1        0.0970
     20 C         140.8303  142.3170  167.5141 C.3     1  UNL1        0.1263
     21 N         139.8814  141.3707  166.8403 N.ar    1  UNL1       -0.2941
     22 C         139.5197  140.0738  167.5014 C.ar    1  UNL1        0.2610
     23 O         140.1069  139.7232  168.8365 O.2     1  UNL1       -0.2670
     24 C         138.5708  139.1275  166.8275 C.ar    1  UNL1        0.0608
     25 C         137.9837  139.4781  165.4925 C.ar    1  UNL1        0.0063
     26 C         138.3454  140.7750  164.8313 C.ar    1  UNL1        0.0161
     27 C         137.7582  141.1256  163.4963 C.ar    1  UNL1        0.0021
     28 C         138.1200  142.4225  162.8351 C.ar    1  UNL1        0.0104
     29 C         139.0688  143.3688  163.5090 C.ar    1  UNL1        0.0699
     30 C         139.6560  143.0182  164.8440 C.ar    1  UNL1        0.0275
     31 C         139.2943  141.7213  165.5052 C.ar    1  UNL1        0.0631
     32 C         139.4306  144.6658  162.8478 C.1     1  UNL1        0.1005
     33 N         139.7923  145.9626  162.1866 N.1     1  UNL1       -0.1908
@<TRIPOS>BOND
     1    10    11    1
     2    11    12   ar
     3    12    13   ar
     4    13     9    1
     5     9     7    1
     6     7     1    1
     7     1     2    1
     8     2     3    1
     9     3     4    1
    10     4    19    1
    11    19    20    1
    12    20    21    1
    13    21    22   ar
    14    22    23    2
    15    22    24   ar
    16    24    25   ar
    17    25    26   ar
    18    26    27   ar
    19    27    28   ar
    20    28    29   ar
    21    29    32    1
    22    32    33    3
    23    29    30   ar
    24    30    31   ar
    25     4     5    1
    26     5     6    1
    27    13    14   ar
    28    14    15   ar
    29    15    16   ar
    30    16    17    1
    31    17    18    3
    32    16    11   ar
    33     6     1    1
    34    31    21   ar
    35    31    26   ar
    36     7     8    1
