@<TRIPOS>MOLECULE
*****
 34 38 0 0 0
SMALL
GASTEIGER

@<TRIPOS>ATOM
      1 N         140.6314  144.8980  161.4590 N.3     1  UNL1       -0.2712
      2 C         139.5878  145.5921  162.2830 C.3     1  UNL1        0.0738
      3 C         139.5067  144.8968  163.6097 C.3     1  UNL1        0.0372
      4 C         138.8116  144.8961  164.9389 C.3     1  UNL1        0.0245
      5 C         139.3755  143.7719  165.7564 C.3     1  UNL1        0.0909
      6 N         140.4192  143.0778  164.9323 N.pl3   1  UNL1       -0.3077
      7 C         140.5003  143.7731  163.6056 C.3     1  UNL1        0.0901
      8 C         141.1954  143.7738  162.2764 C.3     1  UNL1        0.0921
      9 C         141.2381  141.8960  165.3599 C.ar    1  UNL1        0.0478
     10 C         140.8973  141.1657  166.6249 C.ar    1  UNL1        0.0145
     11 C         141.7161  139.9839  167.0525 C.ar    1  UNL1        0.0051
     12 C         142.8758  139.5324  166.2150 C.ar    1  UNL1        0.0715
     13 C         143.2166  140.2628  164.9499 C.ar    1  UNL1        0.0051
     14 C         142.3978  141.4446  164.5223 C.ar    1  UNL1        0.0145
     15 C         143.6946  138.3506  166.6426 C.3     1  UNL1        0.4186
     16 F         144.5135  137.1688  167.0702 F       1  UNL1       -0.1659
     17 F         143.0890  138.4268  168.0128 F       1  UNL1       -0.1659
     18 F         144.3002  138.2744  165.2724 F       1  UNL1       -0.1659
     19 C         141.0395  145.2639  160.0627 C.3     1  UNL1        0.0731
     20 C         141.0490  144.2195  158.9861 C.3     1  UNL1        0.0294
     21 C         139.8300  144.0045  158.1389 C.3     1  UNL1        0.0666
     22 S         138.9558  142.8081  158.3724 S.3     1  UNL1       -0.0756
     23 C         138.7047  141.0826  161.8401 C.ar    1  UNL1        0.1699
     24 N         137.7399  142.2184  162.0109 N.ar    1  UNL1       -0.1281
     25 N         137.7166  143.0031  160.7327 N.ar    1  UNL1       -0.1221
     26 C         138.6669  142.3522  159.7719 C.ar    1  UNL1        0.1932
     27 N         139.2776  141.1653  160.4563 N.ar    1  UNL1       -0.2884
     28 C         140.2845  140.2260  159.8613 C.3     1  UNL1        0.1340
     29 C         141.0441  137.0744  164.3586 C.3     1  UNL1        0.1538
     30 N         140.1133  138.2038  164.0295 N.ar    1  UNL1       -0.2472
     31 C         140.1439  139.0366  162.7824 C.ar    1  UNL1        0.0997
     32 C         139.0380  140.0461  162.8720 C.ar    1  UNL1        0.0755
     33 C         138.3240  139.8372  164.1745 C.ar    1  UNL1        0.1247
     34 N         138.9886  138.6985  164.8899 N.ar    1  UNL1       -0.1675
@<TRIPOS>BOND
     1    29    30    1
     2    30    31   ar
     3    31    32   ar
     4    32    23    1
     5    23    24   ar
     6    24    25   ar
     7    25    26   ar
     8    26    22    1
     9    22    21    1
    10    21    20    1
    11    20    19    1
    12    19     1    1
    13     1     2    1
    14     2     3    1
    15     3     4    1
    16     4     5    1
    17     5     6    1
    18     6     9    1
    19     9    10   ar
    20    10    11   ar
    21    11    12   ar
    22    12    15    1
    23    15    16    1
    24    15    17    1
    25    15    18    1
    26    12    13   ar
    27    13    14   ar
    28     6     7    1
    29     7     8    1
    30    26    27   ar
    31    27    28    1
    32    32    33   ar
    33    33    34   ar
    34    34    30   ar
    35    27    23   ar
    36     8     1    1
    37     7     3    1
    38    14     9   ar
@<TRIPOS>MOLECULE
*****
 34 38 0 0 0
SMALL
GASTEIGER

@<TRIPOS>ATOM
      1 N         140.4802  142.3211  159.4921 N.3     1  UNL1       -0.2712
      2 C         140.4818  141.1672  158.5337 C.3     1  UNL1        0.0738
      3 C         140.0525  139.9411  159.2837 C.3     1  UNL1        0.0372
      4 C         139.7883  138.4702  159.1549 C.3     1  UNL1        0.0245
      5 C         139.3580  137.9572  160.4972 C.3     1  UNL1        0.0909
      6 N         139.3564  139.1112  161.4557 N.pl3   1  UNL1       -0.3077
      7 C         139.7857  140.3373  160.7057 C.3     1  UNL1        0.0901
      8 C         140.0500  141.8082  160.8345 C.3     1  UNL1        0.0921
      9 C         138.9900  139.0498  162.9089 C.ar    1  UNL1        0.0478
     10 C         138.3241  140.2231  163.5647 C.ar    1  UNL1        0.0145
     11 C         137.9576  140.1616  165.0180 C.ar    1  UNL1        0.0051
     12 C         138.2570  138.9270  165.8154 C.ar    1  UNL1        0.0715
     13 C         138.9229  137.7537  165.1596 C.ar    1  UNL1        0.0051
     14 C         139.2893  137.8151  163.7064 C.ar    1  UNL1        0.0145
     15 C         137.8905  138.8656  167.2687 C.3     1  UNL1        0.4186
     16 F         137.5240  138.8042  168.7219 F       1  UNL1       -0.1659
     17 F         138.7768  140.0445  167.5420 F       1  UNL1       -0.1659
     18 F         137.0042  137.6867  166.9953 F       1  UNL1       -0.1659
     19 C         140.8448  143.7390  159.1656 C.3     1  UNL1        0.0731
     20 C         141.1296  144.7135  160.2697 C.3     1  UNL1        0.0294
     21 C         140.1374  145.7908  160.5939 C.3     1  UNL1        0.0666
     22 S         139.9079  146.1945  162.0202 S.3     1  UNL1       -0.0756
     23 C         139.9642  143.5084  164.8215 C.ar    1  UNL1        0.1699
     24 N         138.4984  143.5707  164.5089 N.ar    1  UNL1       -0.1281
     25 N         138.2989  144.5845  163.4216 N.ar    1  UNL1       -0.1221
     26 C         139.6414  145.1488  163.0620 C.ar    1  UNL1        0.1932
     27 N         140.6706  144.4837  163.9271 N.ar    1  UNL1       -0.2884
     28 C         142.1470  144.7476  163.9024 C.3     1  UNL1        0.1340
     29 C         142.6724  139.5741  167.0726 C.3     1  UNL1        0.1538
     30 N         141.8549  140.8173  166.8827 N.ar    1  UNL1       -0.2472
     31 C         141.3957  141.3786  165.5696 C.ar    1  UNL1        0.0997
     32 C         140.6101  142.6257  165.8480 C.ar    1  UNL1        0.0755
     33 C         140.5838  142.8352  167.3330 C.ar    1  UNL1        0.1247
     34 N         141.3531  141.7176  167.9725 N.ar    1  UNL1       -0.1675
@<TRIPOS>BOND
     1    29    30    1
     2    30    31   ar
     3    31    32   ar
     4    32    23    1
     5    23    24   ar
     6    24    25   ar
     7    25    26   ar
     8    26    22    1
     9    22    21    1
    10    21    20    1
    11    20    19    1
    12    19     1    1
    13     1     2    1
    14     2     3    1
    15     3     4    1
    16     4     5    1
    17     5     6    1
    18     6     9    1
    19     9    10   ar
    20    10    11   ar
    21    11    12   ar
    22    12    15    1
    23    15    16    1
    24    15    17    1
    25    15    18    1
    26    12    13   ar
    27    13    14   ar
    28     6     7    1
    29     7     8    1
    30    26    27   ar
    31    27    28    1
    32    32    33   ar
    33    33    34   ar
    34    34    30   ar
    35    27    23   ar
    36     8     1    1
    37     7     3    1
    38    14     9   ar
@<TRIPOS>MOLECULE
*****
 34 38 0 0 0
SMALL
GASTEIGER

@<TRIPOS>ATOM
      1 N         140.7715  143.5599  159.8531 N.3     1  UNL1       -0.2712
      2 C         141.2135  144.8050  160.5633 C.3     1  UNL1        0.0738
      3 C         141.0194  144.5926  162.0355 C.3     1  UNL1        0.0372
      4 C         141.1726  145.2308  163.3842 C.3     1  UNL1        0.0245
      5 C         140.7053  144.2489  164.4175 C.3     1  UNL1        0.0909
      6 N         140.2632  143.0038  163.7072 N.pl3   1  UNL1       -0.3077
      7 C         140.4574  143.2162  162.2351 C.3     1  UNL1        0.0901
      8 C         140.3042  142.5780  160.8863 C.3     1  UNL1        0.0921
      9 C         139.7221  141.7640  164.3553 C.ar    1  UNL1        0.0478
     10 C         139.9941  141.4961  165.8059 C.ar    1  UNL1        0.0145
     11 C         139.4530  140.2563  166.4540 C.ar    1  UNL1        0.0051
     12 C         138.6399  139.2844  165.6516 C.ar    1  UNL1        0.0715
     13 C         138.3678  139.5521  164.2009 C.ar    1  UNL1        0.0051
     14 C         138.9089  140.7920  163.5528 C.ar    1  UNL1        0.0145
     15 C         138.0987  138.0445  166.2997 C.3     1  UNL1        0.4186
     16 F         137.5576  136.8047  166.9478 F       1  UNL1       -0.1659
     17 F         137.5029  138.8775  167.3956 F       1  UNL1       -0.1659
     18 F         138.6946  137.2116  165.2037 F       1  UNL1       -0.1659
     19 C         140.7930  143.3361  158.3701 C.3     1  UNL1        0.0731
     20 C         142.0579  142.8926  157.6968 C.3     1  UNL1        0.0294
     21 C         143.3830  143.4063  158.1768 C.3     1  UNL1        0.0666
     22 S         144.3012  142.5061  158.9491 S.3     1  UNL1       -0.0756
     23 C         143.5568  141.3184  162.5686 C.ar    1  UNL1        0.1699
     24 N         144.0198  142.7239  162.8141 N.ar    1  UNL1       -0.1281
     25 N         144.3550  143.3399  161.4882 N.ar    1  UNL1       -0.1221
     26 C         144.0992  142.3151  160.4231 C.ar    1  UNL1        0.1932
     27 N         143.6059  141.0658  161.0908 N.ar    1  UNL1       -0.2884
     28 C         143.2280  139.7881  160.4017 C.3     1  UNL1        0.1340
     29 C         142.9745  138.8403  167.1947 C.3     1  UNL1        0.1538
     30 N         142.8536  139.1988  165.7432 N.ar    1  UNL1       -0.2472
     31 C         143.5166  140.3600  165.0636 C.ar    1  UNL1        0.0997
     32 C         143.1212  140.3378  163.6168 C.ar    1  UNL1        0.0755
     33 C         142.2138  139.1628  163.4022 C.ar    1  UNL1        0.1247
     34 N         142.0484  138.4589  164.7164 N.ar    1  UNL1       -0.1675
@<TRIPOS>BOND
     1    29    30    1
     2    30    31   ar
     3    31    32   ar
     4    32    23    1
     5    23    24   ar
     6    24    25   ar
     7    25    26   ar
     8    26    22    1
     9    22    21    1
    10    21    20    1
    11    20    19    1
    12    19     1    1
    13     1     2    1
    14     2     3    1
    15     3     4    1
    16     4     5    1
    17     5     6    1
    18     6     9    1
    19     9    10   ar
    20    10    11   ar
    21    11    12   ar
    22    12    15    1
    23    15    16    1
    24    15    17    1
    25    15    18    1
    26    12    13   ar
    27    13    14   ar
    28     6     7    1
    29     7     8    1
    30    26    27   ar
    31    27    28    1
    32    32    33   ar
    33    33    34   ar
    34    34    30   ar
    35    27    23   ar
    36     8     1    1
    37     7     3    1
    38    14     9   ar
@<TRIPOS>MOLECULE
*****
 34 38 0 0 0
SMALL
GASTEIGER

@<TRIPOS>ATOM
      1 N         142.3717  138.1395  162.5350 N.3     1  UNL1       -0.2712
      2 C         140.9866  137.5637  162.5406 C.3     1  UNL1        0.0738
      3 C         140.2962  138.0293  163.7882 C.3     1  UNL1        0.0372
      4 C         139.0134  137.9612  164.5628 C.3     1  UNL1        0.0245
      5 C         139.1790  138.7825  165.8070 C.3     1  UNL1        0.0909
      6 N         140.5642  139.3583  165.8014 N.pl3   1  UNL1       -0.3077
      7 C         141.2546  138.8927  164.5537 C.3     1  UNL1        0.0901
      8 C         142.5373  138.9608  163.7792 C.3     1  UNL1        0.0921
      9 C         141.1551  140.2440  166.8579 C.ar    1  UNL1        0.0478
     10 C         142.3585  141.0833  166.5460 C.ar    1  UNL1        0.0145
     11 C         142.9494  141.9691  167.6025 C.ar    1  UNL1        0.0051
     12 C         142.3370  142.0155  168.9710 C.ar    1  UNL1        0.0715
     13 C         141.1335  141.1761  169.2829 C.ar    1  UNL1        0.0051
     14 C         140.5426  140.2904  168.2264 C.ar    1  UNL1        0.0145
     15 C         142.9279  142.9012  170.0275 C.3     1  UNL1        0.4186
     16 F         143.5188  143.7870  171.0840 F       1  UNL1       -0.1659
     17 F         144.3011  142.4209  169.6621 F       1  UNL1       -0.1659
     18 F         141.5547  143.3816  170.3929 F       1  UNL1       -0.1659
     19 C         143.4091  137.9305  161.4719 C.3     1  UNL1        0.0731
     20 C         144.0659  139.1123  160.8224 C.3     1  UNL1        0.0294
     21 C         143.6227  139.5631  159.4621 C.3     1  UNL1        0.0666
     22 S         143.7599  141.0038  159.0677 S.3     1  UNL1       -0.0756
     23 C         141.9484  143.4917  161.4330 C.ar    1  UNL1        0.1699
     24 N         143.3569  144.0036  161.4975 N.ar    1  UNL1       -0.1281
     25 N         144.2069  143.1339  160.6194 N.ar    1  UNL1       -0.1221
     26 C         143.3237  142.0845  160.0121 C.ar    1  UNL1        0.1932
     27 N         141.9279  142.3056  160.5149 N.ar    1  UNL1       -0.2884
     28 C         140.7232  141.4848  160.1617 C.3     1  UNL1        0.1340
     29 C         138.5998  144.8653  165.2776 C.3     1  UNL1        0.1538
     30 N         139.2286  144.6965  163.9263 N.ar    1  UNL1       -0.2472
     31 C         140.5231  143.9959  163.6374 C.ar    1  UNL1        0.0997
     32 C         140.7677  144.0652  162.1591 C.ar    1  UNL1        0.0755
     33 C         139.6244  144.8086  161.5343 C.ar    1  UNL1        0.1247
     34 N         138.6732  145.1987  162.6265 N.ar    1  UNL1       -0.1675
@<TRIPOS>BOND
     1    29    30    1
     2    30    31   ar
     3    31    32   ar
     4    32    23    1
     5    23    24   ar
     6    24    25   ar
     7    25    26   ar
     8    26    22    1
     9    22    21    1
    10    21    20    1
    11    20    19    1
    12    19     1    1
    13     1     2    1
    14     2     3    1
    15     3     4    1
    16     4     5    1
    17     5     6    1
    18     6     9    1
    19     9    10   ar
    20    10    11   ar
    21    11    12   ar
    22    12    15    1
    23    15    16    1
    24    15    17    1
    25    15    18    1
    26    12    13   ar
    27    13    14   ar
    28     6     7    1
    29     7     8    1
    30    26    27   ar
    31    27    28    1
    32    32    33   ar
    33    33    34   ar
    34    34    30   ar
    35    27    23   ar
    36     8     1    1
    37     7     3    1
    38    14     9   ar
@<TRIPOS>MOLECULE
*****
 34 38 0 0 0
SMALL
GASTEIGER

@<TRIPOS>ATOM
      1 N         142.0614  144.1310  161.9954 N.3     1  UNL1       -0.2712
      2 C         143.3936  143.6148  161.5385 C.3     1  UNL1        0.0738
      3 C         143.8956  142.6496  162.5711 C.3     1  UNL1        0.0372
      4 C         145.0292  141.7340  162.9270 C.3     1  UNL1        0.0245
      5 C         144.7079  141.0877  164.2419 C.3     1  UNL1        0.0909
      6 N         143.3756  141.6040  164.6988 N.pl3   1  UNL1       -0.3077
      7 C         142.8736  142.5692  163.6662 C.3     1  UNL1        0.0901
      8 C         141.7400  143.4848  163.3103 C.3     1  UNL1        0.0921
      9 C         142.6693  141.2220  165.9658 C.ar    1  UNL1        0.0478
     10 C         142.1381  142.2870  166.8787 C.ar    1  UNL1        0.0145
     11 C         141.4318  141.9050  168.1457 C.ar    1  UNL1        0.0051
     12 C         141.2569  140.4580  168.4998 C.ar    1  UNL1        0.0715
     13 C         141.7881  139.3929  167.5869 C.ar    1  UNL1        0.0051
     14 C         142.4944  139.7749  166.3199 C.ar    1  UNL1        0.0145
     15 C         140.5506  140.0760  169.7668 C.3     1  UNL1        0.4186
     16 F         139.8444  139.6940  171.0338 F       1  UNL1       -0.1659
     17 F         139.4533  141.0478  169.4482 F       1  UNL1       -0.1659
     18 F         141.6479  139.1042  170.0855 F       1  UNL1       -0.1659
     19 C         141.2015  145.1198  161.2654 C.3     1  UNL1        0.0731
     20 C         141.1259  145.0862  159.7677 C.3     1  UNL1        0.0294
     21 C         140.0316  144.3169  159.0890 C.3     1  UNL1        0.0666
     22 S         139.8919  142.8427  159.3277 S.3     1  UNL1       -0.0756
     23 C         138.4867  141.0622  162.4775 C.ar    1  UNL1        0.1699
     24 N         137.4279  142.0960  162.2323 N.ar    1  UNL1       -0.1281
     25 N         137.8254  142.8888  161.0226 N.ar    1  UNL1       -0.1221
     26 C         139.1299  142.3450  160.5201 C.ar    1  UNL1        0.1932
     27 N         139.5386  141.2160  161.4192 N.ar    1  UNL1       -0.2884
     28 C         140.7811  140.3866  161.2839 C.3     1  UNL1        0.1340
     29 C         138.0343  138.8332  167.2428 C.3     1  UNL1        0.1538
     30 N         138.2846  139.0274  165.7766 N.ar    1  UNL1       -0.2472
     31 C         138.1450  140.3158  165.0214 C.ar    1  UNL1        0.0997
     32 C         138.4926  140.0519  163.5863 C.ar    1  UNL1        0.0755
     33 C         138.8471  138.6003  163.4545 C.ar    1  UNL1        0.1247
     34 N         138.7185  137.9672  164.8083 N.ar    1  UNL1       -0.1675
@<TRIPOS>BOND
     1    29    30    1
     2    30    31   ar
     3    31    32   ar
     4    32    23    1
     5    23    24   ar
     6    24    25   ar
     7    25    26   ar
     8    26    22    1
     9    22    21    1
    10    21    20    1
    11    20    19    1
    12    19     1    1
    13     1     2    1
    14     2     3    1
    15     3     4    1
    16     4     5    1
    17     5     6    1
    18     6     9    1
    19     9    10   ar
    20    10    11   ar
    21    11    12   ar
    22    12    15    1
    23    15    16    1
    24    15    17    1
    25    15    18    1
    26    12    13   ar
    27    13    14   ar
    28     6     7    1
    29     7     8    1
    30    26    27   ar
    31    27    28    1
    32    32    33   ar
    33    33    34   ar
    34    34    30   ar
    35    27    23   ar
    36     8     1    1
    37     7     3    1
    38    14     9   ar
@<TRIPOS>MOLECULE
*****
 34 38 0 0 0
SMALL
GASTEIGER

@<TRIPOS>ATOM
      1 N         141.8246  138.9861  160.6294 N.3     1  UNL1       -0.2712
      2 C         140.4046  138.5516  160.4176 C.3     1  UNL1        0.0738
      3 C         139.7382  138.4755  161.7593 C.3     1  UNL1        0.0372
      4 C         138.4487  138.1600  162.4576 C.3     1  UNL1        0.0245
      5 C         138.6598  138.3524  163.9302 C.3     1  UNL1        0.0909
      6 N         140.0799  138.7869  164.1420 N.pl3   1  UNL1       -0.3077
      7 C         140.7463  138.8630  162.8003 C.3     1  UNL1        0.0901
      8 C         142.0358  139.1785  162.1020 C.3     1  UNL1        0.0921
      9 C         140.7209  139.0917  165.4634 C.ar    1  UNL1        0.0478
     10 C         139.8978  139.6537  166.5844 C.ar    1  UNL1        0.0145
     11 C         140.5388  139.9585  167.9058 C.ar    1  UNL1        0.0051
     12 C         142.0029  139.7014  168.1062 C.ar    1  UNL1        0.0715
     13 C         142.8261  139.1394  166.9852 C.ar    1  UNL1        0.0051
     14 C         142.1851  138.8346  165.6638 C.ar    1  UNL1        0.0145
     15 C         142.6439  140.0063  169.4277 C.3     1  UNL1        0.4186
     16 F         143.2849  140.3111  170.7491 F       1  UNL1       -0.1659
     17 F         143.3090  141.2094  168.8275 F       1  UNL1       -0.1659
     18 F         141.9789  138.8031  170.0278 F       1  UNL1       -0.1659
     19 C         142.8529  139.1920  159.5570 C.3     1  UNL1        0.0731
     20 C         143.9328  140.2168  159.7402 C.3     1  UNL1        0.0294
     21 C         144.0660  141.3487  158.7649 C.3     1  UNL1        0.0666
     22 S         143.6355  142.7311  159.1570 S.3     1  UNL1       -0.0756
     23 C         142.4811  143.4716  162.7881 C.ar    1  UNL1        0.1699
     24 N         143.9474  143.7733  162.8828 N.ar    1  UNL1       -0.1281
     25 N         144.5583  143.5326  161.5342 N.ar    1  UNL1       -0.1221
     26 C         143.4696  143.0822  160.6059 C.ar    1  UNL1        0.1932
     27 N         142.1858  143.0444  161.3807 N.ar    1  UNL1       -0.2884
     28 C         140.8425  142.6489  160.8428 C.3     1  UNL1        0.1340
     29 C         138.3765  145.0238  165.7246 C.3     1  UNL1        0.1538
     30 N         139.5983  144.2918  165.2543 N.ar    1  UNL1       -0.2472
     31 C         140.3269  144.5298  163.9649 C.ar    1  UNL1        0.0997
     32 C         141.4850  143.5783  163.9045 C.ar    1  UNL1        0.0755
     33 C         141.4720  142.7522  165.1565 C.ar    1  UNL1        0.1247
     34 N         140.3060  143.1932  165.9907 N.ar    1  UNL1       -0.1675
@<TRIPOS>BOND
     1    29    30    1
     2    30    31   ar
     3    31    32   ar
     4    32    23    1
     5    23    24   ar
     6    24    25   ar
     7    25    26   ar
     8    26    22    1
     9    22    21    1
    10    21    20    1
    11    20    19    1
    12    19     1    1
    13     1     2    1
    14     2     3    1
    15     3     4    1
    16     4     5    1
    17     5     6    1
    18     6     9    1
    19     9    10   ar
    20    10    11   ar
    21    11    12   ar
    22    12    15    1
    23    15    16    1
    24    15    17    1
    25    15    18    1
    26    12    13   ar
    27    13    14   ar
    28     6     7    1
    29     7     8    1
    30    26    27   ar
    31    27    28    1
    32    32    33   ar
    33    33    34   ar
    34    34    30   ar
    35    27    23   ar
    36     8     1    1
    37     7     3    1
    38    14     9   ar
@<TRIPOS>MOLECULE
*****
 34 38 0 0 0
SMALL
GASTEIGER

@<TRIPOS>ATOM
      1 N         140.9813  143.1643  161.0098 N.3     1  UNL1       -0.2712
      2 C         142.0941  144.1692  160.9682 C.3     1  UNL1        0.0738
      3 C         142.6974  144.2497  162.3391 C.3     1  UNL1        0.0372
      4 C         143.7580  144.9205  163.1608 C.3     1  UNL1        0.0245
      5 C         143.6736  144.3799  164.5575 C.3     1  UNL1        0.0909
      6 N         142.5607  143.3750  164.5990 N.pl3   1  UNL1       -0.3077
      7 C         141.9574  143.2945  163.2280 C.3     1  UNL1        0.0901
      8 C         140.8968  142.6237  162.4064 C.3     1  UNL1        0.0921
      9 C         142.1273  142.5886  165.8006 C.ar    1  UNL1        0.0478
     10 C         140.6671  142.3885  166.0792 C.ar    1  UNL1        0.0145
     11 C         140.2336  141.6022  167.2808 C.ar    1  UNL1        0.0051
     12 C         141.2604  141.0159  168.2037 C.ar    1  UNL1        0.0715
     13 C         142.7207  141.2159  167.9251 C.ar    1  UNL1        0.0051
     14 C         143.1542  142.0023  166.7235 C.ar    1  UNL1        0.0145
     15 C         140.8270  140.2295  169.4053 C.3     1  UNL1        0.4186
     16 F         140.3936  139.4431  170.6068 F       1  UNL1       -0.1659
     17 F         141.9975  139.3089  169.2250 F       1  UNL1       -0.1659
     18 F         139.6565  141.1501  169.5856 F       1  UNL1       -0.1659
     19 C         140.1065  142.7693  159.8571 C.3     1  UNL1        0.0731
     20 C         138.7125  142.2756  160.1082 C.3     1  UNL1        0.0294
     21 C         138.2676  140.9619  159.5368 C.3     1  UNL1        0.0666
     22 S         138.0350  139.7900  160.4436 S.3     1  UNL1       -0.0756
     23 C         140.4108  139.4475  163.4939 C.ar    1  UNL1        0.1699
     24 N         139.1226  139.8142  164.1694 N.ar    1  UNL1       -0.1281
     25 N         138.0759  139.9871  163.1090 N.ar    1  UNL1       -0.1221
     26 C         138.7171  139.7273  161.7781 C.ar    1  UNL1        0.1932
     27 N         140.1601  139.3938  162.0159 N.ar    1  UNL1       -0.2884
     28 C         141.1743  139.0644  160.9610 C.3     1  UNL1        0.1340
     29 C         144.0238  137.6579  166.9033 C.3     1  UNL1        0.1538
     30 N         143.3804  138.3586  165.7436 N.ar    1  UNL1       -0.2472
     31 C         141.9171  138.3567  165.4138 C.ar    1  UNL1        0.0997
     32 C         141.7197  139.1812  164.1764 C.ar    1  UNL1        0.0755
     33 C         143.0610  139.6928  163.7414 C.ar    1  UNL1        0.1247
     34 N         144.0873  139.1844  164.7099 N.ar    1  UNL1       -0.1675
@<TRIPOS>BOND
     1    29    30    1
     2    30    31   ar
     3    31    32   ar
     4    32    23    1
     5    23    24   ar
     6    24    25   ar
     7    25    26   ar
     8    26    22    1
     9    22    21    1
    10    21    20    1
    11    20    19    1
    12    19     1    1
    13     1     2    1
    14     2     3    1
    15     3     4    1
    16     4     5    1
    17     5     6    1
    18     6     9    1
    19     9    10   ar
    20    10    11   ar
    21    11    12   ar
    22    12    15    1
    23    15    16    1
    24    15    17    1
    25    15    18    1
    26    12    13   ar
    27    13    14   ar
    28     6     7    1
    29     7     8    1
    30    26    27   ar
    31    27    28    1
    32    32    33   ar
    33    33    34   ar
    34    34    30   ar
    35    27    23   ar
    36     8     1    1
    37     7     3    1
    38    14     9   ar
@<TRIPOS>MOLECULE
*****
 34 38 0 0 0
SMALL
GASTEIGER

@<TRIPOS>ATOM
      1 N         140.4608  143.7583  160.3877 N.3     1  UNL1       -0.2712
      2 C         141.3978  144.7011  161.0829 C.3     1  UNL1        0.0738
      3 C         141.5009  144.2776  162.5182 C.3     1  UNL1        0.0372
      4 C         142.1438  144.5985  163.8349 C.3     1  UNL1        0.0245
      5 C         141.6678  143.5924  164.8406 C.3     1  UNL1        0.0909
      6 N         140.7308  142.6496  164.1453 N.pl3   1  UNL1       -0.3077
      7 C         140.6277  143.0731  162.7101 C.3     1  UNL1        0.0901
      8 C         139.9849  142.7522  161.3933 C.3     1  UNL1        0.0921
      9 C         140.0215  141.4875  164.7748 C.ar    1  UNL1        0.0478
     10 C         140.3856  141.0488  166.1623 C.ar    1  UNL1        0.0145
     11 C         139.6763  139.8866  166.7918 C.ar    1  UNL1        0.0051
     12 C         138.6029  139.1632  166.0339 C.ar    1  UNL1        0.0715
     13 C         138.2388  139.6019  164.6464 C.ar    1  UNL1        0.0051
     14 C         138.9481  140.7640  164.0169 C.ar    1  UNL1        0.0145
     15 C         137.8936  138.0010  166.6634 C.3     1  UNL1        0.4186
     16 F         137.1843  136.8389  167.2929 F       1  UNL1       -0.1659
     17 F         138.3241  137.1224  165.5264 F       1  UNL1       -0.1659
     18 F         137.4631  138.8797  167.8004 F       1  UNL1       -0.1659
     19 C         140.0687  143.8122  158.9409 C.3     1  UNL1        0.0731
     20 C         139.3612  142.6487  158.3118 C.3     1  UNL1        0.0294
     21 C         140.0473  141.8369  157.2533 C.3     1  UNL1        0.0666
     22 S         140.9241  140.6839  157.6430 S.3     1  UNL1       -0.0756
     23 C         140.7078  138.8213  161.0415 C.ar    1  UNL1        0.1699
     24 N         139.4368  138.3724  160.3835 N.ar    1  UNL1       -0.1281
     25 N         139.3631  139.0155  159.0303 N.ar    1  UNL1       -0.1221
     26 C         140.5886  139.8619  158.8520 C.ar    1  UNL1        0.1932
     27 N         141.4197  139.7419  160.0950 N.ar    1  UNL1       -0.2884
     28 C         142.7322  140.4229  160.3471 C.3     1  UNL1        0.1340
     29 C         143.3909  138.6915  165.5874 C.3     1  UNL1        0.1538
     30 N         142.4167  138.3605  164.4958 N.ar    1  UNL1       -0.2472
     31 C         142.2742  139.0867  163.1911 C.ar    1  UNL1        0.0997
     32 C         141.1834  138.4201  162.4064 C.ar    1  UNL1        0.0755
     33 C         140.6518  137.2819  163.2260 C.ar    1  UNL1        0.1247
     34 N         141.4141  137.2450  164.5174 N.ar    1  UNL1       -0.1675
@<TRIPOS>BOND
     1    29    30    1
     2    30    31   ar
     3    31    32   ar
     4    32    23    1
     5    23    24   ar
     6    24    25   ar
     7    25    26   ar
     8    26    22    1
     9    22    21    1
    10    21    20    1
    11    20    19    1
    12    19     1    1
    13     1     2    1
    14     2     3    1
    15     3     4    1
    16     4     5    1
    17     5     6    1
    18     6     9    1
    19     9    10   ar
    20    10    11   ar
    21    11    12   ar
    22    12    15    1
    23    15    16    1
    24    15    17    1
    25    15    18    1
    26    12    13   ar
    27    13    14   ar
    28     6     7    1
    29     7     8    1
    30    26    27   ar
    31    27    28    1
    32    32    33   ar
    33    33    34   ar
    34    34    30   ar
    35    27    23   ar
    36     8     1    1
    37     7     3    1
    38    14     9   ar
@<TRIPOS>MOLECULE
*****
 34 38 0 0 0
SMALL
GASTEIGER

@<TRIPOS>ATOM
      1 N         142.3578  143.9228  161.8630 N.3     1  UNL1       -0.2712
      2 C         143.7374  143.4829  161.4715 C.3     1  UNL1        0.0738
      3 C         144.2571  142.5753  162.5468 C.3     1  UNL1        0.0372
      4 C         145.4309  141.7425  162.9694 C.3     1  UNL1        0.0245
      5 C         145.0980  141.1069  164.2867 C.3     1  UNL1        0.0909
      6 N         143.7184  141.5468  164.6782 N.pl3   1  UNL1       -0.3077
      7 C         143.1987  142.4544  163.6029 C.3     1  UNL1        0.0901
      8 C         142.0249  143.2871  163.1802 C.3     1  UNL1        0.0921
      9 C         142.9869  141.1491  165.9259 C.ar    1  UNL1        0.0478
     10 C         142.8347  139.6985  166.2759 C.ar    1  UNL1        0.0145
     11 C         142.1033  139.3007  167.5236 C.ar    1  UNL1        0.0051
     12 C         141.5241  140.3536  168.4213 C.ar    1  UNL1        0.0715
     13 C         141.6762  141.8043  168.0713 C.ar    1  UNL1        0.0051
     14 C         142.4077  142.2020  166.8236 C.ar    1  UNL1        0.0145
     15 C         140.7926  139.9558  169.6690 C.3     1  UNL1        0.4186
     16 F         140.0612  139.5580  170.9167 F       1  UNL1       -0.1659
     17 F         141.8392  138.9192  169.9521 F       1  UNL1       -0.1659
     18 F         139.7460  140.9923  169.3859 F       1  UNL1       -0.1659
     19 C         141.4675  144.8377  161.0755 C.3     1  UNL1        0.0731
     20 C         141.2817  144.6193  159.6031 C.3     1  UNL1        0.0294
     21 C         140.8503  143.2764  159.0925 C.3     1  UNL1        0.0666
     22 S         139.7426  142.5336  159.7789 S.3     1  UNL1       -0.0756
     23 C         139.8890  139.9298  162.6537 C.ar    1  UNL1        0.1699
     24 N         141.2313  139.7315  162.0142 N.ar    1  UNL1       -0.1281
     25 N         141.3398  140.6827  160.8595 N.ar    1  UNL1       -0.1221
     26 C         140.0646  141.4690  160.7853 C.ar    1  UNL1        0.1932
     27 N         139.1679  141.0037  161.8941 N.ar    1  UNL1       -0.2884
     28 C         137.7918  141.5214  162.1912 C.3     1  UNL1        0.1340
     29 C         137.8625  138.8514  167.4088 C.3     1  UNL1        0.1538
     30 N         138.4291  138.6895  166.0294 N.ar    1  UNL1       -0.2472
     31 C         138.8586  139.7996  165.1167 C.ar    1  UNL1        0.0997
     32 C         139.3605  139.1851  163.8437 C.ar    1  UNL1        0.0755
     33 C         139.2413  137.6952  163.9697 C.ar    1  UNL1        0.1247
     34 N         138.6656  137.3889  165.3205 N.ar    1  UNL1       -0.1675
@<TRIPOS>BOND
     1    29    30    1
     2    30    31   ar
     3    31    32   ar
     4    32    23    1
     5    23    24   ar
     6    24    25   ar
     7    25    26   ar
     8    26    22    1
     9    22    21    1
    10    21    20    1
    11    20    19    1
    12    19     1    1
    13     1     2    1
    14     2     3    1
    15     3     4    1
    16     4     5    1
    17     5     6    1
    18     6     9    1
    19     9    10   ar
    20    10    11   ar
    21    11    12   ar
    22    12    15    1
    23    15    16    1
    24    15    17    1
    25    15    18    1
    26    12    13   ar
    27    13    14   ar
    28     6     7    1
    29     7     8    1
    30    26    27   ar
    31    27    28    1
    32    32    33   ar
    33    33    34   ar
    34    34    30   ar
    35    27    23   ar
    36     8     1    1
    37     7     3    1
    38    14     9   ar
