@<TRIPOS>MOLECULE
*****
 33 37 0 0 0
SMALL
GASTEIGER

@<TRIPOS>ATOM
      1 C         138.5688  139.4758  164.6850 C.ar    1  UNL1        0.1564
      2 C         138.9884  138.0514  164.4730 C.ar    1  UNL1        0.0385
      3 C         139.2852  137.5550  163.0890 C.ar    1  UNL1        0.0033
      4 C         139.1625  138.4830  161.9170 C.ar    1  UNL1        0.0048
      5 C         138.7429  139.9074  162.1290 C.ar    1  UNL1        0.0567
      6 C         138.4461  140.4038  163.5130 C.ar    1  UNL1        0.1209
      7 N         138.0265  141.8283  163.7249 N.ar    1  UNL1       -0.2108
      8 C         137.9037  142.7563  162.5529 C.ar    1  UNL1        0.2163
      9 N         137.4841  144.1808  162.7649 N.pl3   1  UNL1       -0.3274
     10 N         138.2006  142.2599  161.1689 N.ar    1  UNL1       -0.1813
     11 N         138.1665  142.9370  159.8309 N.ar    1  UNL1       -0.1451
     12 C         138.5651  141.9311  158.7920 C.ar    1  UNL1        0.1769
     13 N         138.8454  140.6323  159.4880 N.ar    1  UNL1       -0.2086
     14 C         138.6202  140.8355  160.9569 C.ar    1  UNL1        0.1695
     15 H         137.2893  144.5066  163.6732 H       1  UNL1        0.1452
     16 H         137.4036  144.7898  161.9956 H       1  UNL1        0.1452
     17 C         139.3469  139.9646  167.1152 C.3     1  UNL1        0.2525
     18 O         138.2720  139.9722  166.0690 O.3     1  UNL1       -0.4699
     19 C         138.6656  142.1803  157.3162 C.3     1  UNL1        0.1408
     20 N         138.8161  143.5809  156.8007 N.3     1  UNL1       -0.2644
     21 C         139.9234  144.4537  157.3128 C.3     1  UNL1        0.0941
     22 C         140.0740  145.8542  156.7972 C.3     1  UNL1        0.1086
     23 N         139.1172  146.3820  155.7695 N.pl3   1  UNL1       -0.2989
     24 C         138.0099  145.5092  155.2575 C.3     1  UNL1        0.1072
     25 C         137.8594  144.1087  155.7730 C.3     1  UNL1        0.0777
     26 C         136.7522  143.2359  155.2610 C.3     1  UNL1        0.0192
     27 C         139.2677  147.7825  155.2540 C.ar    1  UNL1        0.0931
     28 S         138.6257  149.0087  155.8322 S.2     1  UNL1       -0.0565
     29 C         139.0479  150.1868  155.0052 C.ar    1  UNL1        0.0894
     30 C         138.6389  151.6126  155.2284 C.3     1  UNL1        0.0594
     31 N         139.9508  149.6888  153.9159 N.ar    1  UNL1       -0.2457
     32 C         140.0868  148.2028  154.0696 C.ar    1  UNL1        0.0790
     33 C         140.8990  147.2964  153.1929 C.3     1  UNL1        0.0540
@<TRIPOS>BOND
     1    17    18    1
     2    18     1    1
     3     1     2   ar
     4     2     3   ar
     5     3     4   ar
     6     4     5   ar
     7     5     6   ar
     8     6     7   ar
     9     7     8   ar
    10     8     9    1
    11     8    10   ar
    12    10    11   ar
    13    11    12   ar
    14    12    19    1
    15    19    20    1
    16    20    21    1
    17    21    22    1
    18    22    23    1
    19    23    27    1
    20    27    28   ar
    21    28    29   ar
    22    29    30    1
    23    29    31   ar
    24    31    32   ar
    25    32    33    1
    26    23    24    1
    27    24    25    1
    28    25    26    1
    29    12    13   ar
    30    13    14   ar
    31     6     1   ar
    32    14    10   ar
    33    14     5   ar
    34    25    20    1
    35    32    27   ar
    36     9    15    1
    37     9    16    1
@<TRIPOS>MOLECULE
*****
 33 37 0 0 0
SMALL
GASTEIGER

@<TRIPOS>ATOM
      1 C         139.3419  139.7822  167.8811 C.ar    1  UNL1        0.1564
      2 C         138.2814  139.1698  167.0150 C.ar    1  UNL1        0.0385
      3 C         138.3045  139.3908  165.5315 C.ar    1  UNL1        0.0033
      4 C         139.3881  140.2242  164.9142 C.ar    1  UNL1        0.0048
      5 C         140.4486  140.8366  165.7803 C.ar    1  UNL1        0.0567
      6 C         140.4255  140.6156  167.2637 C.ar    1  UNL1        0.1209
      7 N         141.4861  141.2281  168.1298 N.ar    1  UNL1       -0.2108
      8 C         142.5697  142.0615  167.5125 C.ar    1  UNL1        0.2163
      9 N         143.6304  142.6740  168.3786 N.pl3   1  UNL1       -0.3274
     10 N         142.5928  142.2825  166.0290 N.ar    1  UNL1       -0.1813
     11 N         143.5282  143.0507  165.1431 N.ar    1  UNL1       -0.1451
     12 C         143.0458  142.9131  163.7295 C.ar    1  UNL1        0.1769
     13 N         141.8122  142.0598  163.7418 N.ar    1  UNL1       -0.2086
     14 C         141.5323  141.6701  165.1629 C.ar    1  UNL1        0.1695
     15 H         143.6152  142.5289  169.3522 H       1  UNL1        0.1452
     16 H         144.3416  143.2210  167.9734 H       1  UNL1        0.1452
     17 C         138.7815  140.6267  170.2733 C.3     1  UNL1        0.2525
     18 O         139.3188  139.5612  169.3645 O.3     1  UNL1       -0.4699
     19 C         143.6848  143.5218  162.5166 C.3     1  UNL1        0.1408
     20 N         142.8477  143.8639  161.3198 N.3     1  UNL1       -0.2644
     21 C         141.6732  144.7857  161.4647 C.3     1  UNL1        0.0941
     22 C         140.8361  145.1277  160.2679 C.3     1  UNL1        0.1086
     23 N         141.1735  144.5480  158.9262 N.pl3   1  UNL1       -0.2989
     24 C         142.3479  143.6262  158.7813 C.3     1  UNL1        0.1072
     25 C         143.1850  143.2842  159.9781 C.3     1  UNL1        0.0777
     26 C         144.3594  142.3625  159.8332 C.3     1  UNL1        0.0192
     27 C         140.3364  144.8900  157.7294 C.ar    1  UNL1        0.0931
     28 S         140.2602  146.2305  157.0608 S.2     1  UNL1       -0.0565
     29 C         139.3052  146.1206  155.9093 C.ar    1  UNL1        0.0894
     30 C         138.9302  147.2251  154.9663 C.3     1  UNL1        0.0594
     31 N         138.7912  144.7121  155.8663 N.ar    1  UNL1       -0.2457
     32 C         139.4284  143.9515  156.9912 C.ar    1  UNL1        0.0790
     33 C         139.1982  142.5062  157.3201 C.3     1  UNL1        0.0540
@<TRIPOS>BOND
     1    17    18    1
     2    18     1    1
     3     1     2   ar
     4     2     3   ar
     5     3     4   ar
     6     4     5   ar
     7     5     6   ar
     8     6     7   ar
     9     7     8   ar
    10     8     9    1
    11     8    10   ar
    12    10    11   ar
    13    11    12   ar
    14    12    19    1
    15    19    20    1
    16    20    21    1
    17    21    22    1
    18    22    23    1
    19    23    27    1
    20    27    28   ar
    21    28    29   ar
    22    29    30    1
    23    29    31   ar
    24    31    32   ar
    25    32    33    1
    26    23    24    1
    27    24    25    1
    28    25    26    1
    29    12    13   ar
    30    13    14   ar
    31     6     1   ar
    32    14    10   ar
    33    14     5   ar
    34    25    20    1
    35    32    27   ar
    36     9    15    1
    37     9    16    1
@<TRIPOS>MOLECULE
*****
 33 37 0 0 0
SMALL
GASTEIGER

@<TRIPOS>ATOM
      1 C         141.1094  140.5452  169.1308 C.ar    1  UNL1        0.1564
      2 C         142.3708  140.9017  169.8599 C.ar    1  UNL1        0.0385
      3 C         143.3765  141.8111  169.2184 C.ar    1  UNL1        0.0033
      4 C         143.1208  142.3639  167.8477 C.ar    1  UNL1        0.0048
      5 C         141.8594  142.0074  167.1185 C.ar    1  UNL1        0.0567
      6 C         140.8537  141.0980  167.7601 C.ar    1  UNL1        0.1209
      7 N         139.5923  140.7415  167.0308 N.ar    1  UNL1       -0.2108
      8 C         139.3366  141.2944  165.6601 C.ar    1  UNL1        0.2163
      9 N         138.0751  140.9379  164.9309 N.pl3   1  UNL1       -0.3274
     10 N         140.3423  142.2037  165.0185 N.ar    1  UNL1       -0.1813
     11 N         140.3643  142.8965  163.6883 N.ar    1  UNL1       -0.1451
     12 C         141.6393  143.6811  163.5953 C.ar    1  UNL1        0.1769
     13 N         142.4053  143.4733  164.8681 N.ar    1  UNL1       -0.2086
     14 C         141.6037  142.5602  165.7477 C.ar    1  UNL1        0.1695
     15 H         137.4150  140.3410  165.3519 H       1  UNL1        0.1452
     16 H         137.9073  141.3007  164.0312 H       1  UNL1        0.1452
     17 C         138.8199  140.1966  170.3084 C.3     1  UNL1        0.2525
     18 O         140.1037  139.6358  169.7724 O.3     1  UNL1       -0.4699
     19 C         142.0724  144.5253  162.4335 C.3     1  UNL1        0.1408
     20 N         142.7908  143.8969  161.2763 N.3     1  UNL1       -0.2644
     21 C         144.0090  143.0555  161.5174 C.3     1  UNL1        0.0941
     22 C         144.7274  142.4271  160.3602 C.3     1  UNL1        0.1086
     23 N         144.2276  142.6401  158.9620 N.pl3   1  UNL1       -0.2989
     24 C         143.0094  143.4815  158.7210 C.3     1  UNL1        0.1072
     25 C         142.2910  144.1099  159.8782 C.3     1  UNL1        0.0777
     26 C         141.0729  144.9513  159.6372 C.3     1  UNL1        0.0192
     27 C         144.9460  142.0117  157.8049 C.ar    1  UNL1        0.0931
     28 S         146.1986  142.5266  157.1599 S.2     1  UNL1       -0.0565
     29 C         146.5647  141.5912  156.0459 C.ar    1  UNL1        0.0894
     30 C         147.7491  141.7252  155.1354 C.3     1  UNL1        0.0594
     31 N         145.5384  140.4981  156.0024 N.ar    1  UNL1       -0.2457
     32 C         144.5379  140.7580  157.0894 C.ar    1  UNL1        0.0790
     33 C         143.3399  139.9125  157.4056 C.3     1  UNL1        0.0540
@<TRIPOS>BOND
     1    17    18    1
     2    18     1    1
     3     1     2   ar
     4     2     3   ar
     5     3     4   ar
     6     4     5   ar
     7     5     6   ar
     8     6     7   ar
     9     7     8   ar
    10     8     9    1
    11     8    10   ar
    12    10    11   ar
    13    11    12   ar
    14    12    19    1
    15    19    20    1
    16    20    21    1
    17    21    22    1
    18    22    23    1
    19    23    27    1
    20    27    28   ar
    21    28    29   ar
    22    29    30    1
    23    29    31   ar
    24    31    32   ar
    25    32    33    1
    26    23    24    1
    27    24    25    1
    28    25    26    1
    29    12    13   ar
    30    13    14   ar
    31     6     1   ar
    32    14    10   ar
    33    14     5   ar
    34    25    20    1
    35    32    27   ar
    36     9    15    1
    37     9    16    1
@<TRIPOS>MOLECULE
*****
 33 37 0 0 0
SMALL
GASTEIGER

@<TRIPOS>ATOM
      1 C         141.1154  145.9796  154.6514 C.ar    1  UNL1        0.1564
      2 C         139.9763  146.9052  154.3417 C.ar    1  UNL1        0.0385
      3 C         139.0847  147.3925  155.4451 C.ar    1  UNL1        0.0033
      4 C         139.3322  146.9544  156.8582 C.ar    1  UNL1        0.0048
      5 C         140.4712  146.0289  157.1678 C.ar    1  UNL1        0.0567
      6 C         141.3628  145.5415  156.0644 C.ar    1  UNL1        0.1209
      7 N         142.5019  144.6159  156.3741 N.ar    1  UNL1       -0.2108
      8 C         142.7494  144.1778  157.7872 C.ar    1  UNL1        0.2163
      9 N         143.8885  143.2522  158.0969 N.pl3   1  UNL1       -0.3274
     10 N         141.8578  144.6652  158.8906 N.ar    1  UNL1       -0.1813
     11 N         141.8561  144.4062  160.3681 N.ar    1  UNL1       -0.1451
     12 C         140.7160  145.1717  160.9715 C.ar    1  UNL1        0.1769
     13 N         140.0130  145.9038  159.8670 N.ar    1  UNL1       -0.2086
     14 C         140.7187  145.5907  158.5810 C.ar    1  UNL1        0.1695
     15 H         144.4737  142.9323  157.3727 H       1  UNL1        0.1452
     16 H         144.0509  142.9647  159.0244 H       1  UNL1        0.1452
     17 C         141.4556  144.5968  152.4784 C.3     1  UNL1        0.2525
     18 O         142.0070  145.4923  153.5480 O.3     1  UNL1       -0.4699
     19 C         140.3440  145.2001  162.4244 C.3     1  UNL1        0.1408
     20 N         140.8017  144.1015  163.3374 N.3     1  UNL1       -0.2644
     21 C         139.9333  142.8981  163.5568 C.3     1  UNL1        0.0941
     22 C         140.3909  141.7995  164.4697 C.3     1  UNL1        0.1086
     23 N         141.7169  141.9041  165.1633 N.pl3   1  UNL1       -0.2989
     24 C         142.5852  143.1073  164.9439 C.3     1  UNL1        0.1072
     25 C         142.1275  144.2060  164.0309 C.3     1  UNL1        0.0777
     26 C         142.9958  145.4093  163.8115 C.3     1  UNL1        0.0192
     27 C         142.1745  140.8054  166.0762 C.ar    1  UNL1        0.0931
     28 S         141.9472  140.7377  167.5574 S.2     1  UNL1       -0.0565
     29 C         142.5720  139.4720  168.0649 C.ar    1  UNL1        0.0894
     30 C         142.5817  139.0031  169.4896 C.3     1  UNL1        0.0594
     31 N         143.1854  138.7573  166.8974 N.ar    1  UNL1       -0.2457
     32 C         142.9397  139.5814  165.6683 C.ar    1  UNL1        0.0790
     33 C         143.3817  139.2412  164.2758 C.3     1  UNL1        0.0540
@<TRIPOS>BOND
     1    17    18    1
     2    18     1    1
     3     1     2   ar
     4     2     3   ar
     5     3     4   ar
     6     4     5   ar
     7     5     6   ar
     8     6     7   ar
     9     7     8   ar
    10     8     9    1
    11     8    10   ar
    12    10    11   ar
    13    11    12   ar
    14    12    19    1
    15    19    20    1
    16    20    21    1
    17    21    22    1
    18    22    23    1
    19    23    27    1
    20    27    28   ar
    21    28    29   ar
    22    29    30    1
    23    29    31   ar
    24    31    32   ar
    25    32    33    1
    26    23    24    1
    27    24    25    1
    28    25    26    1
    29    12    13   ar
    30    13    14   ar
    31     6     1   ar
    32    14    10   ar
    33    14     5   ar
    34    25    20    1
    35    32    27   ar
    36     9    15    1
    37     9    16    1
@<TRIPOS>MOLECULE
*****
 33 37 0 0 0
SMALL
GASTEIGER

@<TRIPOS>ATOM
      1 C         139.2940  139.8794  167.5079 C.ar    1  UNL1        0.1564
      2 C         140.4801  139.9260  168.4249 C.ar    1  UNL1        0.0385
      3 C         141.6888  140.7300  168.0474 C.ar    1  UNL1        0.0033
      4 C         141.7115  141.4874  166.7530 C.ar    1  UNL1        0.0048
      5 C         140.5254  141.4408  165.8359 C.ar    1  UNL1        0.0567
      6 C         139.3167  140.6368  166.2134 C.ar    1  UNL1        0.1209
      7 N         138.1305  140.5902  165.2963 N.ar    1  UNL1       -0.2108
      8 C         138.1532  141.3477  164.0018 C.ar    1  UNL1        0.2163
      9 N         136.9671  141.3011  163.0847 N.pl3   1  UNL1       -0.3274
     10 N         139.3619  142.1517  163.6243 N.ar    1  UNL1       -0.1813
     11 N         139.6716  142.9947  162.4229 N.ar    1  UNL1       -0.1451
     12 C         141.0490  143.5623  162.5974 C.ar    1  UNL1        0.1769
     13 N         141.5907  143.0701  163.9068 N.ar    1  UNL1       -0.2086
     14 C         140.5480  142.1983  164.5414 C.ar    1  UNL1        0.1695
     15 H         136.1737  140.7734  163.3324 H       1  UNL1        0.1452
     16 H         136.9819  141.7982  162.2350 H       1  UNL1        0.1452
     17 C         137.6000  137.9812  166.9812 C.3     1  UNL1        0.2525
     18 O         138.0853  139.0753  167.8853 O.3     1  UNL1       -0.4699
     19 C         141.7600  144.4639  161.6321 C.3     1  UNL1        0.1408
     20 N         142.5589  143.8765  160.5066 N.3     1  UNL1       -0.2644
     21 C         143.7090  142.9599  160.8018 C.3     1  UNL1        0.0941
     22 C         144.5079  142.3725  159.6763 C.3     1  UNL1        0.1086
     23 N         144.1568  142.7019  158.2556 N.pl3   1  UNL1       -0.2989
     24 C         143.0067  143.6185  157.9605 C.3     1  UNL1        0.1072
     25 C         142.2078  144.2059  159.0860 C.3     1  UNL1        0.0777
     26 C         141.0578  145.1225  158.7909 C.3     1  UNL1        0.0192
     27 C         144.9557  142.1146  157.1301 C.ar    1  UNL1        0.0931
     28 S         144.4289  141.2185  156.0487 S.2     1  UNL1       -0.0565
     29 C         145.5693  140.8703  155.1386 C.ar    1  UNL1        0.0894
     30 C         145.4918  139.9950  153.9231 C.3     1  UNL1        0.0594
     31 N         146.8010  141.5512  155.6576 N.ar    1  UNL1       -0.2457
     32 C         146.4218  142.3203  156.8884 C.ar    1  UNL1        0.0790
     33 C         147.3464  143.1494  157.7297 C.3     1  UNL1        0.0540
@<TRIPOS>BOND
     1    17    18    1
     2    18     1    1
     3     1     2   ar
     4     2     3   ar
     5     3     4   ar
     6     4     5   ar
     7     5     6   ar
     8     6     7   ar
     9     7     8   ar
    10     8     9    1
    11     8    10   ar
    12    10    11   ar
    13    11    12   ar
    14    12    19    1
    15    19    20    1
    16    20    21    1
    17    21    22    1
    18    22    23    1
    19    23    27    1
    20    27    28   ar
    21    28    29   ar
    22    29    30    1
    23    29    31   ar
    24    31    32   ar
    25    32    33    1
    26    23    24    1
    27    24    25    1
    28    25    26    1
    29    12    13   ar
    30    13    14   ar
    31     6     1   ar
    32    14    10   ar
    33    14     5   ar
    34    25    20    1
    35    32    27   ar
    36     9    15    1
    37     9    16    1
@<TRIPOS>MOLECULE
*****
 33 37 0 0 0
SMALL
GASTEIGER

@<TRIPOS>ATOM
      1 C         141.1790  141.6008  169.0574 C.ar    1  UNL1        0.1564
      2 C         142.4333  142.3287  168.6740 C.ar    1  UNL1        0.0385
      3 C         142.9997  142.1714  167.2940 C.ar    1  UNL1        0.0033
      4 C         142.3118  141.2862  166.2974 C.ar    1  UNL1        0.0048
      5 C         141.0575  140.5584  166.6807 C.ar    1  UNL1        0.0567
      6 C         140.4911  140.7157  168.0608 C.ar    1  UNL1        0.1209
      7 N         139.2368  139.9878  168.4441 N.ar    1  UNL1       -0.2108
      8 C         138.5489  139.1027  167.4475 C.ar    1  UNL1        0.2163
      9 N         137.2946  138.3748  167.8308 N.pl3   1  UNL1       -0.3274
     10 N         139.1153  138.9454  166.0675 N.ar    1  UNL1       -0.1813
     11 N         138.6610  138.1480  164.8809 N.ar    1  UNL1       -0.1451
     12 C         139.6345  138.3831  163.7643 C.ar    1  UNL1        0.1769
     13 N         140.6905  139.3257  164.2606 N.ar    1  UNL1       -0.2086
     14 C         140.3696  139.6732  165.6841 C.ar    1  UNL1        0.1695
     15 H         136.9228  138.4780  168.7366 H       1  UNL1        0.1452
     16 H         136.8431  137.7938  167.1767 H       1  UNL1        0.1452
     17 C         139.6324  142.8565  170.7251 C.3     1  UNL1        0.2525
     18 O         140.6126  141.7581  170.4374 O.3     1  UNL1       -0.4699
     19 C         139.5644  137.7812  162.3920 C.3     1  UNL1        0.1408
     20 N         140.5111  138.2398  161.3227 N.3     1  UNL1       -0.2644
     21 C         141.9379  137.7768  161.3353 C.3     1  UNL1        0.0941
     22 C         142.8846  138.2353  160.2659 C.3     1  UNL1        0.1086
     23 N         142.4045  139.1569  159.1840 N.pl3   1  UNL1       -0.2989
     24 C         140.9779  139.6198  159.1715 C.3     1  UNL1        0.1072
     25 C         140.0311  139.1613  160.2408 C.3     1  UNL1        0.0777
     26 C         138.6045  139.6242  160.2283 C.3     1  UNL1        0.0192
     27 C         143.3513  139.6154  158.1147 C.ar    1  UNL1        0.0931
     28 S         144.2136  140.8416  158.1672 S.2     1  UNL1       -0.0565
     29 C         144.9972  140.9123  156.8900 C.ar    1  UNL1        0.0894
     30 C         145.9853  141.9783  156.5197 C.3     1  UNL1        0.0594
     31 N         144.6190  139.7298  156.0482 N.ar    1  UNL1       -0.2457
     32 C         143.6018  138.9282  156.8050 C.ar    1  UNL1        0.0790
     33 C         142.9496  137.6619  156.3348 C.3     1  UNL1        0.0540
@<TRIPOS>BOND
     1    17    18    1
     2    18     1    1
     3     1     2   ar
     4     2     3   ar
     5     3     4   ar
     6     4     5   ar
     7     5     6   ar
     8     6     7   ar
     9     7     8   ar
    10     8     9    1
    11     8    10   ar
    12    10    11   ar
    13    11    12   ar
    14    12    19    1
    15    19    20    1
    16    20    21    1
    17    21    22    1
    18    22    23    1
    19    23    27    1
    20    27    28   ar
    21    28    29   ar
    22    29    30    1
    23    29    31   ar
    24    31    32   ar
    25    32    33    1
    26    23    24    1
    27    24    25    1
    28    25    26    1
    29    12    13   ar
    30    13    14   ar
    31     6     1   ar
    32    14    10   ar
    33    14     5   ar
    34    25    20    1
    35    32    27   ar
    36     9    15    1
    37     9    16    1
@<TRIPOS>MOLECULE
*****
 33 37 0 0 0
SMALL
GASTEIGER

@<TRIPOS>ATOM
      1 C         141.1831  141.5277  169.1429 C.ar    1  UNL1        0.1564
      2 C         142.4504  142.2691  168.8358 C.ar    1  UNL1        0.0385
      3 C         143.0761  142.1543  167.4774 C.ar    1  UNL1        0.0033
      4 C         142.4345  141.2983  166.4260 C.ar    1  UNL1        0.0048
      5 C         141.1672  140.5570  166.7331 C.ar    1  UNL1        0.0567
      6 C         140.5415  140.6717  168.0915 C.ar    1  UNL1        0.1209
      7 N         139.2741  139.9303  168.3985 N.ar    1  UNL1       -0.2108
      8 C         138.6325  139.0742  167.3472 C.ar    1  UNL1        0.2163
      9 N         137.3652  138.3328  167.6542 N.pl3   1  UNL1       -0.3274
     10 N         139.2582  138.9595  165.9887 N.ar    1  UNL1       -0.1813
     11 N         138.8578  138.1974  164.7604 N.ar    1  UNL1       -0.1451
     12 C         139.8777  138.4677  163.6942 C.ar    1  UNL1        0.1769
     13 N         140.9084  139.3969  164.2636 N.ar    1  UNL1       -0.2086
     14 C         140.5255  139.7008  165.6817 C.ar    1  UNL1        0.1695
     15 H         136.9545  138.4081  168.5458 H       1  UNL1        0.1452
     16 H         136.9440  137.7710  166.9641 H       1  UNL1        0.1452
     17 C         139.6727  142.8101  170.8234 C.3     1  UNL1        0.2525
     18 O         140.5575  141.6424  170.5013 O.3     1  UNL1       -0.4699
     19 C         139.8685  137.9072  162.3028 C.3     1  UNL1        0.1408
     20 N         139.3618  138.7395  161.1624 N.3     1  UNL1       -0.2644
     21 C         137.9753  139.3100  161.2083 C.3     1  UNL1        0.0941
     22 C         137.4686  140.1423  160.0678 C.3     1  UNL1        0.1086
     23 N         138.3485  140.4040  158.8814 N.pl3   1  UNL1       -0.2989
     24 C         139.7349  139.8334  158.8356 C.3     1  UNL1        0.1072
     25 C         140.2416  139.0011  159.9760 C.3     1  UNL1        0.0777
     26 C         141.6280  138.4306  159.9301 C.3     1  UNL1        0.0192
     27 C         137.8418  141.2362  157.7410 C.ar    1  UNL1        0.0931
     28 S         136.7695  140.8411  156.7693 S.2     1  UNL1       -0.0565
     29 C         136.5835  141.9704  155.7998 C.ar    1  UNL1        0.0894
     30 C         135.6109  142.0012  154.6583 C.3     1  UNL1        0.0594
     31 N         137.5408  143.0635  156.1721 N.ar    1  UNL1       -0.2457
     32 C         138.3185  142.6098  157.3719 C.ar    1  UNL1        0.0790
     33 C         139.3856  143.3922  158.0785 C.3     1  UNL1        0.0540
@<TRIPOS>BOND
     1    17    18    1
     2    18     1    1
     3     1     2   ar
     4     2     3   ar
     5     3     4   ar
     6     4     5   ar
     7     5     6   ar
     8     6     7   ar
     9     7     8   ar
    10     8     9    1
    11     8    10   ar
    12    10    11   ar
    13    11    12   ar
    14    12    19    1
    15    19    20    1
    16    20    21    1
    17    21    22    1
    18    22    23    1
    19    23    27    1
    20    27    28   ar
    21    28    29   ar
    22    29    30    1
    23    29    31   ar
    24    31    32   ar
    25    32    33    1
    26    23    24    1
    27    24    25    1
    28    25    26    1
    29    12    13   ar
    30    13    14   ar
    31     6     1   ar
    32    14    10   ar
    33    14     5   ar
    34    25    20    1
    35    32    27   ar
    36     9    15    1
    37     9    16    1
@<TRIPOS>MOLECULE
*****
 33 37 0 0 0
SMALL
GASTEIGER

@<TRIPOS>ATOM
      1 C         143.8194  131.3295  155.6467 C.ar    1  UNL1        0.1564
      2 C         144.7256  130.9063  156.7646 C.ar    1  UNL1        0.0385
      3 C         145.0580  131.8690  157.8659 C.ar    1  UNL1        0.0033
      4 C         144.4843  133.2548  157.8493 C.ar    1  UNL1        0.0048
      5 C         143.5781  133.6780  156.7314 C.ar    1  UNL1        0.0567
      6 C         143.2457  132.7153  155.6301 C.ar    1  UNL1        0.1209
      7 N         142.3395  133.1386  154.5122 N.ar    1  UNL1       -0.2108
      8 C         141.7658  134.5244  154.4956 C.ar    1  UNL1        0.2163
      9 N         140.8595  134.9476  153.3776 N.pl3   1  UNL1       -0.3274
     10 N         142.0982  135.4870  155.5969 N.ar    1  UNL1       -0.1813
     11 N         141.6857  136.9073  155.8470 N.ar    1  UNL1       -0.1451
     12 C         142.3369  137.3619  157.1195 C.ar    1  UNL1        0.1769
     13 N         143.1519  136.2225  157.6558 N.ar    1  UNL1       -0.2086
     14 C         143.0044  135.0638  156.7148 C.ar    1  UNL1        0.1695
     15 H         140.6413  134.3158  152.6548 H       1  UNL1        0.1452
     16 H         140.4830  135.8572  153.3668 H       1  UNL1        0.1452
     17 C         144.5742  129.5570  153.9036 C.3     1  UNL1        0.2525
     18 O         143.4870  130.3669  154.5454 O.3     1  UNL1       -0.4699
     19 C         142.1976  138.7178  157.7458 C.3     1  UNL1        0.1408
     20 N         141.4866  138.8684  159.0579 N.3     1  UNL1       -0.2644
     21 C         139.9883  138.8173  159.1093 C.3     1  UNL1        0.0941
     22 C         139.2773  138.9679  160.4215 C.3     1  UNL1        0.1086
     23 N         140.0646  139.1695  161.6823 N.pl3   1  UNL1       -0.2989
     24 C         141.5628  139.2206  161.6309 C.3     1  UNL1        0.1072
     25 C         142.2738  139.0701  160.3187 C.3     1  UNL1        0.0777
     26 C         143.7720  139.1212  160.2673 C.3     1  UNL1        0.0192
     27 C         139.3536  139.3201  162.9944 C.ar    1  UNL1        0.0931
     28 S         139.1992  138.2565  164.0408 S.2     1  UNL1       -0.0565
     29 C         138.4223  138.8398  165.1837 C.ar    1  UNL1        0.0894
     30 C         138.0386  138.1246  166.4451 C.3     1  UNL1        0.0594
     31 N         138.0965  140.2639  164.8437 N.ar    1  UNL1       -0.2457
     32 C         138.6720  140.5609  163.4907 C.ar    1  UNL1        0.0790
     33 C         138.5818  141.8688  162.7618 C.3     1  UNL1        0.0540
@<TRIPOS>BOND
     1    17    18    1
     2    18     1    1
     3     1     2   ar
     4     2     3   ar
     5     3     4   ar
     6     4     5   ar
     7     5     6   ar
     8     6     7   ar
     9     7     8   ar
    10     8     9    1
    11     8    10   ar
    12    10    11   ar
    13    11    12   ar
    14    12    19    1
    15    19    20    1
    16    20    21    1
    17    21    22    1
    18    22    23    1
    19    23    27    1
    20    27    28   ar
    21    28    29   ar
    22    29    30    1
    23    29    31   ar
    24    31    32   ar
    25    32    33    1
    26    23    24    1
    27    24    25    1
    28    25    26    1
    29    12    13   ar
    30    13    14   ar
    31     6     1   ar
    32    14    10   ar
    33    14     5   ar
    34    25    20    1
    35    32    27   ar
    36     9    15    1
    37     9    16    1
@<TRIPOS>MOLECULE
*****
 33 37 0 0 0
SMALL
GASTEIGER

@<TRIPOS>ATOM
      1 C         140.9023  142.2650  169.5301 C.ar    1  UNL1        0.1564
      2 C         139.7493  141.7216  170.3208 C.ar    1  UNL1        0.0385
      3 C         138.9824  140.5374  169.8115 C.ar    1  UNL1        0.0033
      4 C         139.3685  139.8966  168.5114 C.ar    1  UNL1        0.0048
      5 C         140.5215  140.4399  167.7207 C.ar    1  UNL1        0.0567
      6 C         141.2884  141.6242  168.2300 C.ar    1  UNL1        0.1209
      7 N         142.4414  142.1676  167.4392 N.ar    1  UNL1       -0.2108
      8 C         142.8275  141.5267  166.1391 C.ar    1  UNL1        0.2163
      9 N         143.9805  142.0701  165.3483 N.pl3   1  UNL1       -0.3274
     10 N         142.0606  140.3425  165.6298 N.ar    1  UNL1       -0.1813
     11 N         142.2077  139.5083  164.3919 N.ar    1  UNL1       -0.1451
     12 C         141.1457  138.4493  164.4176 C.ar    1  UNL1        0.1769
     13 N         140.3421  138.6291  165.6714 N.ar    1  UNL1       -0.2086
     14 C         140.9076  139.7991  166.4205 C.ar    1  UNL1        0.1695
     15 H         144.4839  142.8474  165.6826 H       1  UNL1        0.1452
     16 H         144.2339  141.6495  164.4950 H       1  UNL1        0.1452
     17 C         142.9922  143.2507  170.7178 C.3     1  UNL1        0.2525
     18 O         141.6692  143.4492  170.0394 O.3     1  UNL1       -0.4699
     19 C         140.9258  137.3956  163.3729 C.3     1  UNL1        0.1408
     20 N         140.8989  137.7727  161.9213 N.3     1  UNL1       -0.2644
     21 C         142.1716  137.7910  161.1275 C.3     1  UNL1        0.0941
     22 C         142.1447  138.1681  159.6759 C.3     1  UNL1        0.1086
     23 N         140.8452  138.5269  159.0181 N.pl3   1  UNL1       -0.2989
     24 C         139.5726  138.5086  159.8120 C.3     1  UNL1        0.1072
     25 C         139.5995  138.1315  161.2635 C.3     1  UNL1        0.0777
     26 C         138.3269  138.1132  162.0574 C.3     1  UNL1        0.0192
     27 C         140.8183  138.9040  157.5666 C.ar    1  UNL1        0.0931
     28 S         140.8677  137.9532  156.4075 S.2     1  UNL1       -0.0565
     29 C         140.8172  138.7597  155.1438 C.ar    1  UNL1        0.0894
     30 C         140.8428  138.2129  153.7473 C.3     1  UNL1        0.0594
     31 N         140.7366  140.2090  155.5218 N.ar    1  UNL1       -0.2457
     32 C         140.7373  140.2983  157.0192 C.ar    1  UNL1        0.0790
     33 C         140.6689  141.5602  157.8272 C.3     1  UNL1        0.0540
@<TRIPOS>BOND
     1    17    18    1
     2    18     1    1
     3     1     2   ar
     4     2     3   ar
     5     3     4   ar
     6     4     5   ar
     7     5     6   ar
     8     6     7   ar
     9     7     8   ar
    10     8     9    1
    11     8    10   ar
    12    10    11   ar
    13    11    12   ar
    14    12    19    1
    15    19    20    1
    16    20    21    1
    17    21    22    1
    18    22    23    1
    19    23    27    1
    20    27    28   ar
    21    28    29   ar
    22    29    30    1
    23    29    31   ar
    24    31    32   ar
    25    32    33    1
    26    23    24    1
    27    24    25    1
    28    25    26    1
    29    12    13   ar
    30    13    14   ar
    31     6     1   ar
    32    14    10   ar
    33    14     5   ar
    34    25    20    1
    35    32    27   ar
    36     9    15    1
    37     9    16    1
