@<TRIPOS>MOLECULE
*****
 34 38 0 0 0
SMALL
GASTEIGER

@<TRIPOS>ATOM
      1 C         138.1000  139.9276  160.3986 C.ar    1  UNL1        0.0503
      2 C         138.0151  140.8699  161.5626 C.ar    1  UNL1        0.0143
      3 C         138.7554  140.5639  162.8308 C.ar    1  UNL1       -0.0029
      4 C         139.5807  139.3157  162.9349 C.ar    1  UNL1       -0.0208
      5 C         139.6656  138.3734  161.7709 C.ar    1  UNL1       -0.0029
      6 C         138.9253  138.6794  160.5027 C.ar    1  UNL1        0.0143
      7 O         139.2836  141.8142  158.3886 O.2     1  UNL1       -0.2744
      8 C         137.9515  141.1769  158.1254 C.2     1  UNL1        0.2313
      9 N         137.3597  140.2336  159.1304 N.am    1  UNL1       -0.2836
     10 H         136.4854  139.8154  158.9576 H       1  UNL1        0.1549
     11 C         137.2112  141.4829  156.8572 C.3     1  UNL1        0.1173
     12 C         137.6695  142.4098  155.7704 C.3     1  UNL1        0.0204
     13 C         136.6241  142.4154  154.6947 C.3     1  UNL1        0.0351
     14 C         135.5197  141.4922  155.1166 C.ar    1  UNL1        0.0227
     15 S         134.1912  140.9251  154.7125 S.2     1  UNL1       -0.0692
     16 C         133.7329  139.9983  155.7993 C.ar    1  UNL1        0.1338
     17 N         134.7783  139.9926  156.8750 N.ar    1  UNL1       -0.2405
     18 C         135.8826  140.9159  156.4531 C.ar    1  UNL1        0.0699
     19 C         140.3210  139.0097  164.2031 C.3     1  UNL1        0.0420
     20 C         139.6211  139.1191  165.5252 C.3     1  UNL1        0.0585
     21 C         138.2753  138.5479  165.8603 C.3     1  UNL1        0.0175
     22 C         137.9665  138.8947  167.2866 C.3     1  UNL1        0.0199
     23 C         139.1215  139.6804  167.8330 C.3     1  UNL1        0.0856
     24 N         140.1441  139.8191  166.7444 N.3     1  UNL1       -0.2971
     25 H         141.0226  139.3924  167.0384 H       1  UNL1        0.1233
     26 C         139.2341  140.2308  169.2239 C.3     1  UNL1        0.1484
     27 O         138.2018  139.8816  170.2546 O.3     1  UNL1       -0.3786
     28 H         138.4220  140.3167  171.0931 H       1  UNL1        0.2108
     29 C         140.3791  141.1305  169.5840 C.ar    1  UNL1        0.0247
     30 C         140.1896  142.6185  169.5932 C.ar    1  UNL1        0.0012
     31 C         141.3345  143.5182  169.9533 C.ar    1  UNL1        0.0204
     32 C         142.6690  142.9299  170.3042 C.ar    1  UNL1        0.0989
     33 N         142.8585  141.4418  170.2950 N.ar    1  UNL1       -0.2426
     34 C         141.7135  140.5422  169.9349 C.ar    1  UNL1        0.0969
@<TRIPOS>BOND
     1     7     8    2
     2     8     9   am
     3     9     1    1
     4     1     2   ar
     5     2     3   ar
     6     3     4   ar
     7     4    19    1
     8    20    19    1
     9    20    21    1
    10    21    22    1
    11    23    22    1
    12    23    26    1
    13    26    27    1
    14    26    29    1
    15    29    30   ar
    16    30    31   ar
    17    31    32   ar
    18    32    33   ar
    19    33    34   ar
    20    23    24    1
    21     4     5   ar
    22     5     6   ar
    23    11     8    1
    24    11    12    1
    25    12    13    1
    26    13    14    1
    27    14    15   ar
    28    15    16   ar
    29    16    17   ar
    30    17    18   ar
    31     6     1   ar
    32    18    11    1
    33    24    20    1
    34    18    14   ar
    35    34    29   ar
    36     9    10    1
    37    27    28    1
    38    24    25    1
@<TRIPOS>MOLECULE
*****
 34 38 0 0 0
SMALL
GASTEIGER

@<TRIPOS>ATOM
      1 C         144.6332  142.5793  161.9805 C.ar    1  UNL1        0.0503
      2 C         144.9899  141.4263  162.8711 C.ar    1  UNL1        0.0143
      3 C         144.7220  141.5061  164.3449 C.ar    1  UNL1       -0.0029
      4 C         144.0974  142.7389  164.9279 C.ar    1  UNL1       -0.0208
      5 C         143.7407  143.8920  164.0373 C.ar    1  UNL1       -0.0029
      6 C         144.0086  143.8122  162.5636 C.ar    1  UNL1        0.0143
      7 O         142.4594  141.7074  160.1058 O.2     1  UNL1       -0.2744
      8 C         143.8141  142.0635  159.5694 C.2     1  UNL1        0.2313
      9 N         144.9011  142.4995  160.5068 N.am    1  UNL1       -0.2836
     10 H         145.7903  142.7332  160.1547 H       1  UNL1        0.1549
     11 C         144.0820  141.9837  158.0957 C.3     1  UNL1        0.1173
     12 C         143.0949  141.5800  157.0407 C.3     1  UNL1        0.0204
     13 C         143.7869  141.6404  155.7112 C.3     1  UNL1        0.0351
     14 C         145.2015  142.0814  155.9444 C.ar    1  UNL1        0.0227
     15 S         146.5034  142.3912  155.2669 S.2     1  UNL1       -0.0692
     16 C         147.4904  142.7948  156.3219 C.ar    1  UNL1        0.1338
     17 N         146.7985  142.7345  157.6514 N.ar    1  UNL1       -0.2405
     18 C         145.3839  142.2935  157.4181 C.ar    1  UNL1        0.0699
     19 C         143.8295  142.8187  166.4017 C.3     1  UNL1        0.0420
     20 C         142.5940  142.1900  166.9745 C.3     1  UNL1        0.0585
     21 C         142.1028  142.3363  168.3841 C.3     1  UNL1        0.0175
     22 C         140.8379  141.5414  168.5191 C.3     1  UNL1        0.0199
     23 C         140.5474  140.9038  167.1928 C.3     1  UNL1        0.0856
     24 N         141.6327  141.3047  166.2382 N.3     1  UNL1       -0.2971
     25 H         141.2304  141.8111  165.4495 H       1  UNL1        0.1233
     26 C         139.3770  140.0205  166.8766 C.3     1  UNL1        0.1484
     27 O         138.6623  139.2988  167.9804 O.3     1  UNL1       -0.3786
     28 H         137.9359  138.7754  167.6072 H       1  UNL1        0.2108
     29 C         138.9214  139.8588  165.4567 C.ar    1  UNL1        0.0247
     30 C         138.1906  140.9754  164.7717 C.ar    1  UNL1        0.0012
     31 C         137.7350  140.8137  163.3517 C.ar    1  UNL1        0.0204
     32 C         138.0102  139.5354  162.6167 C.ar    1  UNL1        0.0989
     33 N         138.7411  138.4188  163.3017 N.ar    1  UNL1       -0.2426
     34 C         139.1967  138.5805  164.7216 C.ar    1  UNL1        0.0969
@<TRIPOS>BOND
     1     7     8    2
     2     8     9   am
     3     9     1    1
     4     1     2   ar
     5     2     3   ar
     6     3     4   ar
     7     4    19    1
     8    20    19    1
     9    20    21    1
    10    21    22    1
    11    23    22    1
    12    23    26    1
    13    26    27    1
    14    26    29    1
    15    29    30   ar
    16    30    31   ar
    17    31    32   ar
    18    32    33   ar
    19    33    34   ar
    20    23    24    1
    21     4     5   ar
    22     5     6   ar
    23    11     8    1
    24    11    12    1
    25    12    13    1
    26    13    14    1
    27    14    15   ar
    28    15    16   ar
    29    16    17   ar
    30    17    18   ar
    31     6     1   ar
    32    18    11    1
    33    24    20    1
    34    18    14   ar
    35    34    29   ar
    36     9    10    1
    37    27    28    1
    38    24    25    1
@<TRIPOS>MOLECULE
*****
 34 38 0 0 0
SMALL
GASTEIGER

@<TRIPOS>ATOM
      1 C         139.9282  144.6900  161.5517 C.ar    1  UNL1        0.0503
      2 C         140.7717  145.4110  162.5609 C.ar    1  UNL1        0.0143
      3 C         140.6703  145.0552  164.0145 C.ar    1  UNL1       -0.0029
      4 C         139.7253  143.9784  164.4590 C.ar    1  UNL1       -0.0208
      5 C         138.8817  143.2574  163.4498 C.ar    1  UNL1       -0.0029
      6 C         138.9832  143.6131  161.9961 C.ar    1  UNL1        0.0143
      7 O         142.4310  144.0570  160.0235 O.2     1  UNL1       -0.2744
      8 C         141.2810  144.7292  159.3339 C.2     1  UNL1        0.2313
      9 N         140.0296  145.0458  160.0980 N.am    1  UNL1       -0.2836
     10 H         139.2748  145.4870  159.6454 H       1  UNL1        0.1549
     11 C         141.3824  145.0850  157.8803 C.3     1  UNL1        0.1173
     12 C         142.3902  144.5457  156.9088 C.3     1  UNL1        0.0204
     13 C         142.1244  145.1700  155.5710 C.3     1  UNL1        0.0351
     14 C         140.9525  146.0950  155.7156 C.ar    1  UNL1        0.0227
     15 S         140.0640  147.0525  154.9781 S.2     1  UNL1       -0.0692
     16 C         139.0563  147.5917  155.9496 C.ar    1  UNL1        0.1338
     17 N         139.3220  146.9675  157.2875 N.ar    1  UNL1       -0.2405
     18 C         140.4939  146.0425  157.1428 C.ar    1  UNL1        0.0699
     19 C         139.6239  143.6227  165.9127 C.3     1  UNL1        0.0420
     20 C         140.4043  142.4632  166.4572 C.3     1  UNL1        0.0585
     21 C         140.5487  142.1000  167.9053 C.3     1  UNL1        0.0175
     22 C         141.4110  140.8757  167.9924 C.3     1  UNL1        0.0199
     23 C         141.7995  140.4822  166.5980 C.3     1  UNL1        0.0856
     24 N         141.1773  141.4634  165.6493 N.3     1  UNL1       -0.2971
     25 H         140.5500  140.9761  165.0095 H       1  UNL1        0.1233
     26 C         142.6592  139.3129  166.2190 C.3     1  UNL1        0.1484
     27 O         143.4790  138.6150  167.2634 O.3     1  UNL1       -0.3786
     28 H         143.9724  137.8871  166.8540 H       1  UNL1        0.2108
     29 C         142.6991  138.8416  164.7956 C.ar    1  UNL1        0.0247
     30 C         141.5619  138.0362  164.2400 C.ar    1  UNL1        0.0012
     31 C         141.6018  137.5649  162.8166 C.ar    1  UNL1        0.0204
     32 C         142.7788  137.8987  161.9486 C.ar    1  UNL1        0.0989
     33 N         143.9159  138.7041  162.5042 N.ar    1  UNL1       -0.2426
     34 C         143.8760  139.1754  163.9276 C.ar    1  UNL1        0.0969
@<TRIPOS>BOND
     1     7     8    2
     2     8     9   am
     3     9     1    1
     4     1     2   ar
     5     2     3   ar
     6     3     4   ar
     7     4    19    1
     8    20    19    1
     9    20    21    1
    10    21    22    1
    11    23    22    1
    12    23    26    1
    13    26    27    1
    14    26    29    1
    15    29    30   ar
    16    30    31   ar
    17    31    32   ar
    18    32    33   ar
    19    33    34   ar
    20    23    24    1
    21     4     5   ar
    22     5     6   ar
    23    11     8    1
    24    11    12    1
    25    12    13    1
    26    13    14    1
    27    14    15   ar
    28    15    16   ar
    29    16    17   ar
    30    17    18   ar
    31     6     1   ar
    32    18    11    1
    33    24    20    1
    34    18    14   ar
    35    34    29   ar
    36     9    10    1
    37    27    28    1
    38    24    25    1
@<TRIPOS>MOLECULE
*****
 34 38 0 0 0
SMALL
GASTEIGER

@<TRIPOS>ATOM
      1 C         138.5369  140.2201  159.2771 C.ar    1  UNL1        0.0503
      2 C         137.9569  139.6221  160.5244 C.ar    1  UNL1        0.0143
      3 C         137.6883  140.4903  161.7178 C.ar    1  UNL1       -0.0029
      4 C         137.9997  141.9566  161.6637 C.ar    1  UNL1       -0.0208
      5 C         138.5797  142.5547  160.4164 C.ar    1  UNL1       -0.0029
      6 C         138.8484  141.6865  159.2231 C.ar    1  UNL1        0.0143
      7 O         140.9365  138.4198  159.2417 O.2     1  UNL1       -0.2744
      8 C         140.0054  138.4517  158.0661 C.2     1  UNL1        0.2313
      9 N         138.8056  139.3519  158.0838 N.am    1  UNL1       -0.2836
     10 H         138.1945  139.3728  157.3122 H       1  UNL1        0.1549
     11 C         140.2740  137.5835  156.8728 C.3     1  UNL1        0.1173
     12 C         139.2873  137.2298  155.7997 C.3     1  UNL1        0.0204
     13 C         139.9800  136.3442  154.8068 C.3     1  UNL1        0.0351
     14 C         141.3948  136.1506  155.2661 C.ar    1  UNL1        0.0227
     15 S         142.6973  135.4836  154.9363 S.2     1  UNL1       -0.0692
     16 C         143.6839  135.8374  156.0093 C.ar    1  UNL1        0.1338
     17 N         142.9912  136.7230  157.0023 N.ar    1  UNL1       -0.2405
     18 C         141.5765  136.9165  156.5430 C.ar    1  UNL1        0.0699
     19 C         137.7310  142.8248  162.8571 C.3     1  UNL1        0.0420
     20 C         138.6478  142.7740  164.0432 C.3     1  UNL1        0.0585
     21 C         139.6882  143.7946  164.3977 C.3     1  UNL1        0.0175
     22 C         140.3685  143.3450  165.6567 C.3     1  UNL1        0.0199
     23 C         139.7485  142.0465  166.0803 C.3     1  UNL1        0.0856
     24 N         138.6850  141.6936  165.0830 N.3     1  UNL1       -0.2971
     25 H         137.7801  141.6309  165.5496 H       1  UNL1        0.1233
     26 C         140.1257  141.2421  167.2888 C.3     1  UNL1        0.1484
     27 O         139.6138  139.8410  167.4470 O.3     1  UNL1       -0.3786
     28 H         139.9492  139.4659  168.2763 H       1  UNL1        0.2108
     29 C         141.0148  141.8387  168.3393 C.ar    1  UNL1        0.0247
     30 C         142.5055  141.7383  168.2056 C.ar    1  UNL1        0.0012
     31 C         143.3946  142.3350  169.2561 C.ar    1  UNL1        0.0204
     32 C         142.7931  143.0321  170.4402 C.ar    1  UNL1        0.0989
     33 N         141.3024  143.1325  170.5739 N.ar    1  UNL1       -0.2426
     34 C         140.4133  142.5358  169.5235 C.ar    1  UNL1        0.0969
@<TRIPOS>BOND
     1     7     8    2
     2     8     9   am
     3     9     1    1
     4     1     2   ar
     5     2     3   ar
     6     3     4   ar
     7     4    19    1
     8    20    19    1
     9    20    21    1
    10    21    22    1
    11    23    22    1
    12    23    26    1
    13    26    27    1
    14    26    29    1
    15    29    30   ar
    16    30    31   ar
    17    31    32   ar
    18    32    33   ar
    19    33    34   ar
    20    23    24    1
    21     4     5   ar
    22     5     6   ar
    23    11     8    1
    24    11    12    1
    25    12    13    1
    26    13    14    1
    27    14    15   ar
    28    15    16   ar
    29    16    17   ar
    30    17    18   ar
    31     6     1   ar
    32    18    11    1
    33    24    20    1
    34    18    14   ar
    35    34    29   ar
    36     9    10    1
    37    27    28    1
    38    24    25    1
@<TRIPOS>MOLECULE
*****
 34 38 0 0 0
SMALL
GASTEIGER

@<TRIPOS>ATOM
      1 C         137.8296  139.5856  160.8624 C.ar    1  UNL1        0.0503
      2 C         137.5994  140.5439  161.9932 C.ar    1  UNL1        0.0143
      3 C         138.0330  140.1822  163.3829 C.ar    1  UNL1       -0.0029
      4 C         138.6970  138.8623  163.6417 C.ar    1  UNL1       -0.0208
      5 C         138.9272  137.9040  162.5109 C.ar    1  UNL1       -0.0029
      6 C         138.4936  138.2657  161.1213 C.ar    1  UNL1        0.0143
      7 O         139.5485  141.3706  159.1715 O.2     1  UNL1       -0.2744
      8 C         138.2554  140.8398  158.6273 C.2     1  UNL1        0.2313
      9 N         137.3959  139.9473  159.4728 N.am    1  UNL1       -0.2836
     10 H         136.5472  139.5989  159.1156 H       1  UNL1        0.1549
     11 C         137.8217  141.2015  157.2376 C.3     1  UNL1        0.1173
     12 C         138.6388  141.9484  156.2253 C.3     1  UNL1        0.0204
     13 C         137.8168  142.0882  154.9784 C.3     1  UNL1        0.0351
     14 C         136.4919  141.4278  155.2199 C.ar    1  UNL1        0.0227
     15 S         135.1651  141.1061  154.5986 S.2     1  UNL1       -0.0692
     16 C         134.3482  140.3592  155.6108 C.ar    1  UNL1        0.1338
     17 N         135.1700  140.2193  156.8578 N.ar    1  UNL1       -0.2405
     18 C         136.4950  140.8797  156.6163 C.ar    1  UNL1        0.0699
     19 C         139.1306  138.5007  165.0314 C.3     1  UNL1        0.0420
     20 C         139.9138  139.4821  165.8520 C.3     1  UNL1        0.0585
     21 C         139.6062  139.8980  167.2598 C.3     1  UNL1        0.0175
     22 C         140.6444  140.8929  167.6867 C.3     1  UNL1        0.0199
     23 C         141.5938  141.0919  166.5426 C.3     1  UNL1        0.0856
     24 N         141.1422  140.2199  165.4086 N.3     1  UNL1       -0.2971
     25 H         141.8778  139.5551  165.1690 H       1  UNL1        0.1233
     26 C         142.7855  142.0028  166.5339 C.3     1  UNL1        0.1484
     27 O         143.3886  142.4612  167.8285 O.3     1  UNL1       -0.3786
     28 H         144.1452  143.0400  167.6457 H       1  UNL1        0.2108
     29 C         143.3740  142.4554  165.2305 C.ar    1  UNL1        0.0247
     30 C         144.5265  141.7077  164.6281 C.ar    1  UNL1        0.0012
     31 C         145.1151  142.1603  163.3248 C.ar    1  UNL1        0.0204
     32 C         144.5512  143.3606  162.6238 C.ar    1  UNL1        0.0989
     33 N         143.3987  144.1083  163.2262 N.ar    1  UNL1       -0.2426
     34 C         142.8101  143.6557  164.5296 C.ar    1  UNL1        0.0969
@<TRIPOS>BOND
     1     7     8    2
     2     8     9   am
     3     9     1    1
     4     1     2   ar
     5     2     3   ar
     6     3     4   ar
     7     4    19    1
     8    20    19    1
     9    20    21    1
    10    21    22    1
    11    23    22    1
    12    23    26    1
    13    26    27    1
    14    26    29    1
    15    29    30   ar
    16    30    31   ar
    17    31    32   ar
    18    32    33   ar
    19    33    34   ar
    20    23    24    1
    21     4     5   ar
    22     5     6   ar
    23    11     8    1
    24    11    12    1
    25    12    13    1
    26    13    14    1
    27    14    15   ar
    28    15    16   ar
    29    16    17   ar
    30    17    18   ar
    31     6     1   ar
    32    18    11    1
    33    24    20    1
    34    18    14   ar
    35    34    29   ar
    36     9    10    1
    37    27    28    1
    38    24    25    1
@<TRIPOS>MOLECULE
*****
 34 38 0 0 0
SMALL
GASTEIGER

@<TRIPOS>ATOM
      1 C         139.2236  139.1046  159.5701 C.ar    1  UNL1        0.0503
      2 C         140.7122  138.9342  159.5009 C.ar    1  UNL1        0.0143
      3 C         141.4656  138.4291  160.6956 C.ar    1  UNL1       -0.0029
      4 C         140.7304  138.0944  161.9594 C.ar    1  UNL1       -0.0208
      5 C         139.2417  138.2648  162.0287 C.ar    1  UNL1       -0.0029
      6 C         138.4883  138.7699  160.8340 C.ar    1  UNL1        0.0143
      7 O         138.4443  141.9967  159.4010 O.2     1  UNL1       -0.2744
      8 C         138.0805  141.0558  158.2909 C.2     1  UNL1        0.2313
      9 N         138.4702  139.6097  158.3754 N.am    1  UNL1       -0.2836
     10 H         138.2314  138.9921  157.6468 H       1  UNL1        0.1549
     11 C         137.3271  141.5609  157.0962 C.3     1  UNL1        0.1173
     12 C         137.7273  142.7142  156.2244 C.3     1  UNL1        0.0204
     13 C         136.6887  142.8675  155.1530 C.3     1  UNL1        0.0351
     14 C         135.6467  141.8090  155.3626 C.ar    1  UNL1        0.0227
     15 S         134.3609  141.2496  154.8299 S.2     1  UNL1       -0.0692
     16 C         133.9608  140.0964  155.7017 C.ar    1  UNL1        0.1338
     17 N         134.9993  139.9431  156.7732 N.ar    1  UNL1       -0.2405
     18 C         136.0413  141.0015  156.5636 C.ar    1  UNL1        0.0699
     19 C         141.4838  137.5892  163.1541 C.3     1  UNL1        0.0420
     20 C         141.9467  138.5491  164.2097 C.3     1  UNL1        0.0585
     21 C         142.6829  138.1900  165.4662 C.3     1  UNL1        0.0175
     22 C         142.9459  139.4556  166.2272 C.3     1  UNL1        0.0199
     23 C         142.3723  140.5969  165.4409 C.3     1  UNL1        0.0856
     24 N         141.7547  140.0367  164.1940 N.3     1  UNL1       -0.2971
     25 H         142.2097  140.4358  163.3730 H       1  UNL1        0.1233
     26 C         142.4096  142.0444  165.8328 C.3     1  UNL1        0.1484
     27 O         143.4449  142.5325  166.8022 O.3     1  UNL1       -0.3786
     28 H         143.3299  143.4849  166.9458 H       1  UNL1        0.2108
     29 C         141.4116  143.0037  165.2551 C.ar    1  UNL1        0.0247
     30 C         140.0075  143.0332  165.7823 C.ar    1  UNL1        0.0012
     31 C         139.0095  143.9925  165.2047 C.ar    1  UNL1        0.0204
     32 C         139.4155  144.9224  164.0999 C.ar    1  UNL1        0.0989
     33 N         140.8196  144.8929  163.5727 N.ar    1  UNL1       -0.2426
     34 C         141.8176  143.9335  164.1503 C.ar    1  UNL1        0.0969
@<TRIPOS>BOND
     1     7     8    2
     2     8     9   am
     3     9     1    1
     4     1     2   ar
     5     2     3   ar
     6     3     4   ar
     7     4    19    1
     8    20    19    1
     9    20    21    1
    10    21    22    1
    11    23    22    1
    12    23    26    1
    13    26    27    1
    14    26    29    1
    15    29    30   ar
    16    30    31   ar
    17    31    32   ar
    18    32    33   ar
    19    33    34   ar
    20    23    24    1
    21     4     5   ar
    22     5     6   ar
    23    11     8    1
    24    11    12    1
    25    12    13    1
    26    13    14    1
    27    14    15   ar
    28    15    16   ar
    29    16    17   ar
    30    17    18   ar
    31     6     1   ar
    32    18    11    1
    33    24    20    1
    34    18    14   ar
    35    34    29   ar
    36     9    10    1
    37    27    28    1
    38    24    25    1
@<TRIPOS>MOLECULE
*****
 34 38 0 0 0
SMALL
GASTEIGER

@<TRIPOS>ATOM
      1 C         138.5511  139.2542  159.9786 C.ar    1  UNL1        0.0503
      2 C         137.8039  139.1248  161.2727 C.ar    1  UNL1        0.0143
      3 C         138.4893  138.5592  162.4812 C.ar    1  UNL1       -0.0029
      4 C         139.9219  138.1231  162.3954 C.ar    1  UNL1       -0.0208
      5 C         140.6692  138.2525  161.1012 C.ar    1  UNL1       -0.0029
      6 C         139.9837  138.8181  159.8928 C.ar    1  UNL1        0.0143
      7 O         138.9665  142.1285  159.2262 O.2     1  UNL1       -0.2744
      8 C         138.0733  141.2569  158.3939 C.2     1  UNL1        0.2313
      9 N         137.8656  139.8197  158.7701 N.am    1  UNL1       -0.2836
     10 H         137.2794  139.2477  158.2239 H       1  UNL1        0.1549
     11 C         137.3879  141.8225  157.1855 C.3     1  UNL1        0.1173
     12 C         137.6868  143.1429  156.5395 C.3     1  UNL1        0.0204
     13 C         136.7668  143.3033  155.3656 C.3     1  UNL1        0.0351
     14 C         135.8994  142.0822  155.2861 C.ar    1  UNL1        0.0227
     15 S         134.7947  141.4267  154.5115 S.2     1  UNL1       -0.0692
     16 C         134.4959  140.1063  155.1575 C.ar    1  UNL1        0.1338
     17 N         135.4158  139.9458  156.3314 N.ar    1  UNL1       -0.2405
     18 C         136.2832  141.1670  156.4109 C.ar    1  UNL1        0.0699
     19 C         140.6074  137.5576  163.6039 C.3     1  UNL1        0.0420
     20 C         141.4321  138.4490  164.4843 C.3     1  UNL1        0.0585
     21 C         142.5358  138.0079  165.3991 C.3     1  UNL1        0.0175
     22 C         143.0837  139.2244  166.0846 C.3     1  UNL1        0.0199
     23 C         142.3186  140.4174  165.5934 C.3     1  UNL1        0.0856
     24 N         141.2978  139.9382  164.6043 N.3     1  UNL1       -0.2971
     25 H         141.4629  140.3748  163.6974 H       1  UNL1        0.1233
     26 C         142.5360  141.8399  166.0169 C.3     1  UNL1        0.1484
     27 O         143.1209  142.8285  165.0524 O.3     1  UNL1       -0.3786
     28 H         143.1942  143.6950  165.4821 H       1  UNL1        0.2108
     29 C         142.1685  142.2736  167.4050 C.ar    1  UNL1        0.0247
     30 C         143.2053  142.2764  168.4891 C.ar    1  UNL1        0.0012
     31 C         142.8378  142.7102  169.8772 C.ar    1  UNL1        0.0204
     32 C         141.4336  143.1412  170.1812 C.ar    1  UNL1        0.0989
     33 N         140.3968  143.1385  169.0971 N.ar    1  UNL1       -0.2426
     34 C         140.7643  142.7047  167.7090 C.ar    1  UNL1        0.0969
@<TRIPOS>BOND
     1     7     8    2
     2     8     9   am
     3     9     1    1
     4     1     2   ar
     5     2     3   ar
     6     3     4   ar
     7     4    19    1
     8    20    19    1
     9    20    21    1
    10    21    22    1
    11    23    22    1
    12    23    26    1
    13    26    27    1
    14    26    29    1
    15    29    30   ar
    16    30    31   ar
    17    31    32   ar
    18    32    33   ar
    19    33    34   ar
    20    23    24    1
    21     4     5   ar
    22     5     6   ar
    23    11     8    1
    24    11    12    1
    25    12    13    1
    26    13    14    1
    27    14    15   ar
    28    15    16   ar
    29    16    17   ar
    30    17    18   ar
    31     6     1   ar
    32    18    11    1
    33    24    20    1
    34    18    14   ar
    35    34    29   ar
    36     9    10    1
    37    27    28    1
    38    24    25    1
@<TRIPOS>MOLECULE
*****
 34 38 0 0 0
SMALL
GASTEIGER

@<TRIPOS>ATOM
      1 C         142.9557  137.7799  161.4110 C.ar    1  UNL1        0.0503
      2 C         141.6942  137.7293  162.2210 C.ar    1  UNL1        0.0143
      3 C         141.6184  138.4459  163.5366 C.ar    1  UNL1       -0.0029
      4 C         142.8040  139.2130  164.0422 C.ar    1  UNL1       -0.0208
      5 C         144.0656  139.2637  163.2322 C.ar    1  UNL1       -0.0029
      6 C         144.1414  138.5471  161.9166 C.ar    1  UNL1        0.0143
      7 O         142.2685  139.2256  158.8737 O.2     1  UNL1       -0.2744
      8 C         142.6879  137.7862  158.8268 C.2     1  UNL1        0.2313
      9 N         143.0315  137.0633  160.0954 N.am    1  UNL1       -0.2836
     10 H         143.3068  136.1186  160.0646 H       1  UNL1        0.1549
     11 C         142.7638  137.0697  157.5112 C.3     1  UNL1        0.1173
     12 C         142.5220  137.6771  156.1611 C.3     1  UNL1        0.0204
     13 C         142.7035  136.6027  155.1302 C.3     1  UNL1        0.0351
     14 C         143.0574  135.3312  155.8431 C.ar    1  UNL1        0.0227
     15 S         143.3883  133.8815  155.6465 S.2     1  UNL1       -0.0692
     16 C         143.6301  133.2741  156.9966 C.ar    1  UNL1        0.1338
     17 N         143.4486  134.3485  158.0275 N.ar    1  UNL1       -0.2405
     18 C         143.0947  135.6199  157.3146 C.ar    1  UNL1        0.0699
     19 C         142.7282  139.9296  165.3578 C.3     1  UNL1        0.0420
     20 C         141.8298  141.1208  165.5123 C.3     1  UNL1        0.0585
     21 C         141.2399  141.6193  166.7981 C.3     1  UNL1        0.0175
     22 C         140.4091  142.8292  166.4887 C.3     1  UNL1        0.0199
     23 C         140.4856  143.0785  165.0115 C.3     1  UNL1        0.0856
     24 N         141.3636  142.0227  164.4081 N.3     1  UNL1       -0.2971
     25 H         142.1668  142.4581  163.9545 H       1  UNL1        0.1233
     26 C         139.8037  144.1888  164.2683 C.3     1  UNL1        0.1484
     27 O         139.0458  145.2412  165.0220 O.3     1  UNL1       -0.3786
     28 H         138.6692  145.8792  164.3959 H       1  UNL1        0.2108
     29 C         139.8797  144.2467  162.7713 C.ar    1  UNL1        0.0247
     30 C         140.9029  145.1184  162.1054 C.ar    1  UNL1        0.0012
     31 C         140.9789  145.1763  160.6085 C.ar    1  UNL1        0.0204
     32 C         140.0318  144.3624  159.7774 C.ar    1  UNL1        0.0989
     33 N         139.0087  143.4907  160.4433 N.ar    1  UNL1       -0.2426
     34 C         138.9327  143.4328  161.9402 C.ar    1  UNL1        0.0969
@<TRIPOS>BOND
     1     7     8    2
     2     8     9   am
     3     9     1    1
     4     1     2   ar
     5     2     3   ar
     6     3     4   ar
     7     4    19    1
     8    20    19    1
     9    20    21    1
    10    21    22    1
    11    23    22    1
    12    23    26    1
    13    26    27    1
    14    26    29    1
    15    29    30   ar
    16    30    31   ar
    17    31    32   ar
    18    32    33   ar
    19    33    34   ar
    20    23    24    1
    21     4     5   ar
    22     5     6   ar
    23    11     8    1
    24    11    12    1
    25    12    13    1
    26    13    14    1
    27    14    15   ar
    28    15    16   ar
    29    16    17   ar
    30    17    18   ar
    31     6     1   ar
    32    18    11    1
    33    24    20    1
    34    18    14   ar
    35    34    29   ar
    36     9    10    1
    37    27    28    1
    38    24    25    1
@<TRIPOS>MOLECULE
*****
 34 38 0 0 0
SMALL
GASTEIGER

@<TRIPOS>ATOM
      1 C         141.6490  136.4943  156.2222 C.ar    1  UNL1        0.0503
      2 C         140.2724  137.0703  156.3742 C.ar    1  UNL1        0.0143
      3 C         140.0217  138.1605  157.3734 C.ar    1  UNL1       -0.0029
      4 C         141.1475  138.6748  158.2207 C.ar    1  UNL1       -0.0208
      5 C         142.5242  138.0988  158.0687 C.ar    1  UNL1       -0.0029
      6 C         142.7750  137.0086  157.0695 C.ar    1  UNL1        0.0143
      7 O         142.6372  133.8151  157.1416 O.2     1  UNL1       -0.2744
      8 C         142.3939  134.0645  155.6827 C.2     1  UNL1        0.2313
      9 N         141.8998  135.4041  155.2229 N.am    1  UNL1       -0.2836
     10 H         141.7401  135.5677  154.2654 H       1  UNL1        0.1549
     11 C         142.6446  132.9742  154.6834 C.3     1  UNL1        0.1173
     12 C         142.0701  132.8971  153.2999 C.3     1  UNL1        0.0204
     13 C         142.5844  131.6449  152.6537 C.3     1  UNL1        0.0351
     14 C         143.4766  130.9481  153.6378 C.ar    1  UNL1        0.0227
     15 S         144.3458  129.7436  153.8465 S.2     1  UNL1       -0.0692
     16 C         144.9202  129.8207  155.2300 C.ar    1  UNL1        0.1338
     17 N         144.4061  131.0729  155.8763 N.ar    1  UNL1       -0.2405
     18 C         143.5138  131.7697  154.8922 C.ar    1  UNL1        0.0699
     19 C         140.8968  139.7650  159.2200 C.3     1  UNL1        0.0420
     20 C         139.9974  139.5141  160.3938 C.3     1  UNL1        0.0585
     21 C         139.4652  138.1806  160.8276 C.3     1  UNL1        0.0175
     22 C         138.6111  138.3950  162.0419 C.3     1  UNL1        0.0199
     23 C         138.6155  139.8612  162.3586 C.3     1  UNL1        0.0856
     24 N         139.4722  140.5528  161.3400 N.3     1  UNL1       -0.2971
     25 H         140.2495  141.0234  161.8036 H       1  UNL1        0.1233
     26 C         137.8903  140.5200  163.4945 C.3     1  UNL1        0.1484
     27 O         136.6229  141.2793  163.2354 O.3     1  UNL1       -0.3786
     28 H         136.2854  141.6395  164.0704 H       1  UNL1        0.2108
     29 C         138.4326  140.4196  164.8894 C.ar    1  UNL1        0.0247
     30 C         138.0364  139.2695  165.7672 C.ar    1  UNL1        0.0012
     31 C         138.5787  139.1690  167.1621 C.ar    1  UNL1        0.0204
     32 C         139.5172  140.2186  167.6793 C.ar    1  UNL1        0.0989
     33 N         139.9135  141.3688  166.8015 N.ar    1  UNL1       -0.2426
     34 C         139.3712  141.4692  165.4066 C.ar    1  UNL1        0.0969
@<TRIPOS>BOND
     1     7     8    2
     2     8     9   am
     3     9     1    1
     4     1     2   ar
     5     2     3   ar
     6     3     4   ar
     7     4    19    1
     8    20    19    1
     9    20    21    1
    10    21    22    1
    11    23    22    1
    12    23    26    1
    13    26    27    1
    14    26    29    1
    15    29    30   ar
    16    30    31   ar
    17    31    32   ar
    18    32    33   ar
    19    33    34   ar
    20    23    24    1
    21     4     5   ar
    22     5     6   ar
    23    11     8    1
    24    11    12    1
    25    12    13    1
    26    13    14    1
    27    14    15   ar
    28    15    16   ar
    29    16    17   ar
    30    17    18   ar
    31     6     1   ar
    32    18    11    1
    33    24    20    1
    34    18    14   ar
    35    34    29   ar
    36     9    10    1
    37    27    28    1
    38    24    25    1
