@<TRIPOS>MOLECULE
*****
 36 38 0 0 0
SMALL
GASTEIGER

@<TRIPOS>ATOM
      1 C         138.1170  138.7306  162.2148 C.3     1  UNL1        0.1058
      2 C         139.0848  137.8893  162.9930 C.3     1  UNL1        0.1700
      3 O         140.2598  137.2640  162.3014 O.3     1  UNL1       -0.3793
      4 H         140.2453  137.5013  161.3610 H       1  UNL1        0.2106
      5 C         138.8776  137.6735  164.4629 C.3     1  UNL1        0.2358
      6 O         138.6691  138.8486  165.3715 O.3     1  UNL1       -0.4728
      7 C         141.9322  140.1122  168.2007 C.ar    1  UNL1        0.0646
      8 C         140.4949  140.2280  168.6139 C.ar    1  UNL1        0.0190
      9 C         139.4072  139.8068  167.6708 C.ar    1  UNL1        0.0382
     10 C         139.7568  139.2698  166.3145 C.ar    1  UNL1        0.1388
     11 C         141.1941  139.1540  165.9014 C.ar    1  UNL1        0.0382
     12 C         142.2818  139.5752  166.8445 C.ar    1  UNL1        0.0190
     13 N         143.0200  140.5334  169.1438 N.pl3   1  UNL1       -0.2187
     14 H         143.7999  139.9501  169.2878 H       1  UNL1        0.1734
     15 C         142.8189  143.1533  170.5915 C.3     1  UNL1        0.1996
     16 S         142.9194  141.8433  169.8676 S.O2    1  UNL1        0.0558
     17 O         142.3842  141.1344  171.0763 O.2     1  UNL1       -0.1544
     18 O         143.4546  142.5522  168.6590 O.2     1  UNL1       -0.1544
     19 N         138.3655  140.2006  162.0491 N.3     1  UNL1       -0.2665
     20 C         139.4516  140.6788  161.1317 C.3     1  UNL1        0.0771
     21 C         140.8876  140.5792  161.5534 C.3     1  UNL1        0.0437
     22 C         141.5725  141.7635  162.1687 C.ar    1  UNL1       -0.0199
     23 C         141.4437  143.1170  161.5352 C.ar    1  UNL1       -0.0033
     24 C         142.1285  144.3013  162.1504 C.ar    1  UNL1        0.0119
     25 C         142.9422  144.1320  163.3992 C.ar    1  UNL1        0.0682
     26 CL        143.6270  145.3163  164.0144 Cl      1  UNL1       -0.0814
     27 C         143.0709  142.7785  164.0327 C.ar    1  UNL1        0.0679
     28 CL        143.8845  142.6092  165.2814 Cl      1  UNL1       -0.0814
     29 C         142.3861  141.5943  163.4174 C.ar    1  UNL1        0.0080
     30 C         137.5280  141.1923  162.8009 C.3     1  UNL1        0.0992
     31 C         138.1741  142.3798  163.4507 C.ar    1  UNL1       -0.0061
     32 C         138.0469  143.7379  162.8265 C.ar    1  UNL1       -0.0029
     33 C         138.6930  144.9254  163.4763 C.ar    1  UNL1       -0.0003
     34 C         139.4664  144.7549  164.7502 C.ar    1  UNL1       -0.0000
     35 C         139.5936  143.3969  165.3743 C.ar    1  UNL1       -0.0003
     36 C         138.9475  142.2093  164.7245 C.ar    1  UNL1       -0.0029
@<TRIPOS>BOND
     1    15    16    1
     2    16    17    2
     3    16    18    2
     4    16    13    1
     5    13     7    1
     6     7     8   ar
     7     8     9   ar
     8     9    10   ar
     9    10     6    1
    10     6     5    1
    11     5     2    1
    12     2     3    1
    13     2     1    1
    14     1    19    1
    15    19    20    1
    16    20    21    1
    17    21    22    1
    18    22    23   ar
    19    23    24   ar
    20    24    25   ar
    21    25    26    1
    22    25    27   ar
    23    27    28    1
    24    27    29   ar
    25    19    30    1
    26    30    31    1
    27    31    32   ar
    28    32    33   ar
    29    33    34   ar
    30    34    35   ar
    31    35    36   ar
    32    10    11   ar
    33    11    12   ar
    34    12     7   ar
    35    29    22   ar
    36    36    31   ar
    37    13    14    1
    38     3     4    1
@<TRIPOS>MOLECULE
*****
 36 38 0 0 0
SMALL
GASTEIGER

@<TRIPOS>ATOM
      1 C         143.2310  143.2323  160.6106 C.3     1  UNL1        0.1058
      2 C         144.2353  143.3551  161.7180 C.3     1  UNL1        0.1700
      3 O         144.2592  144.5854  162.5758 O.3     1  UNL1       -0.3793
      4 H         143.5657  145.1972  162.2830 H       1  UNL1        0.2106
      5 C         145.2158  142.2477  161.9675 C.3     1  UNL1        0.2358
      6 O         145.6441  141.9267  163.3688 O.3     1  UNL1       -0.4728
      7 C         142.7647  139.9462  166.2037 C.ar    1  UNL1        0.0646
      8 C         143.7269  139.1140  165.4091 C.ar    1  UNL1        0.0190
      9 C         144.6867  139.7741  164.4641 C.ar    1  UNL1        0.0382
     10 C         144.6843  141.2666  164.3137 C.ar    1  UNL1        0.1388
     11 C         143.7221  142.0988  165.1084 C.ar    1  UNL1        0.0382
     12 C         142.7623  141.4386  166.0534 C.ar    1  UNL1        0.0190
     13 N         141.8049  139.2861  167.1487 N.pl3   1  UNL1       -0.2187
     14 H         141.3182  138.4768  166.8704 H       1  UNL1        0.1734
     15 C         141.3687  140.4316  169.8869 C.3     1  UNL1        0.1996
     16 S         141.5868  139.8588  168.5178 S.O2    1  UNL1        0.0558
     17 O         142.9799  139.4609  168.9062 O.2     1  UNL1       -0.1544
     18 O         140.1937  140.2567  168.1293 O.2     1  UNL1       -0.1544
     19 N         141.8007  142.9099  160.9276 N.3     1  UNL1       -0.2665
     20 C         141.3418  141.4821  160.9538 C.3     1  UNL1        0.0771
     21 C         141.9597  140.5132  161.9178 C.3     1  UNL1        0.0437
     22 C         141.0899  139.7341  162.8594 C.ar    1  UNL1       -0.0199
     23 C         141.2786  138.2530  163.0031 C.ar    1  UNL1       -0.0033
     24 C         140.4087  137.4741  163.9447 C.ar    1  UNL1        0.0119
     25 C         139.3501  138.1762  164.7424 C.ar    1  UNL1        0.0682
     26 CL        138.4803  137.3972  165.6840 Cl      1  UNL1       -0.0814
     27 C         139.1614  139.6573  164.5987 C.ar    1  UNL1        0.0679
     28 CL        138.1029  140.3594  165.3965 Cl      1  UNL1       -0.0814
     29 C         140.0313  140.4363  163.6572 C.ar    1  UNL1        0.0080
     30 C         140.8294  144.0154  161.2185 C.3     1  UNL1        0.0992
     31 C         140.0449  144.0073  162.4969 C.ar    1  UNL1       -0.0061
     32 C         140.7596  144.0234  163.8157 C.ar    1  UNL1       -0.0029
     33 C         139.9750  144.0153  165.0941 C.ar    1  UNL1       -0.0003
     34 C         138.4757  143.9911  165.0538 C.ar    1  UNL1       -0.0000
     35 C         137.7610  143.9750  163.7351 C.ar    1  UNL1       -0.0003
     36 C         138.5456  143.9831  162.4567 C.ar    1  UNL1       -0.0029
@<TRIPOS>BOND
     1    15    16    1
     2    16    17    2
     3    16    18    2
     4    16    13    1
     5    13     7    1
     6     7     8   ar
     7     8     9   ar
     8     9    10   ar
     9    10     6    1
    10     6     5    1
    11     5     2    1
    12     2     3    1
    13     2     1    1
    14     1    19    1
    15    19    20    1
    16    20    21    1
    17    21    22    1
    18    22    23   ar
    19    23    24   ar
    20    24    25   ar
    21    25    26    1
    22    25    27   ar
    23    27    28    1
    24    27    29   ar
    25    19    30    1
    26    30    31    1
    27    31    32   ar
    28    32    33   ar
    29    33    34   ar
    30    34    35   ar
    31    35    36   ar
    32    10    11   ar
    33    11    12   ar
    34    12     7   ar
    35    29    22   ar
    36    36    31   ar
    37    13    14    1
    38     3     4    1
@<TRIPOS>MOLECULE
*****
 36 38 0 0 0
SMALL
GASTEIGER

@<TRIPOS>ATOM
      1 C         138.0104  142.3239  161.2285 C.3     1  UNL1        0.1058
      2 C         137.7677  141.2384  162.2350 C.3     1  UNL1        0.1700
      3 O         136.6269  141.3537  163.2021 O.3     1  UNL1       -0.3793
      4 H         136.1502  142.1833  163.0424 H       1  UNL1        0.2106
      5 C         138.6659  140.0377  162.2744 C.3     1  UNL1        0.2358
      6 O         138.5157  139.0243  163.3700 O.3     1  UNL1       -0.4728
      7 C         140.3809  139.7705  167.3966 C.ar    1  UNL1        0.0646
      8 C         141.2518  139.5795  166.1904 C.ar    1  UNL1        0.0190
      9 C         140.6301  139.3308  164.8482 C.ar    1  UNL1        0.0382
     10 C         139.1374  139.2730  164.7122 C.ar    1  UNL1        0.1388
     11 C         138.2665  139.4640  165.9184 C.ar    1  UNL1        0.0382
     12 C         138.8882  139.7127  167.2606 C.ar    1  UNL1        0.0190
     13 N         141.0027  140.0192  168.7389 N.pl3   1  UNL1       -0.2187
     14 H         140.6914  139.5168  169.5262 H       1  UNL1        0.1734
     15 C         143.1947  142.0474  169.0240 C.3     1  UNL1        0.1996
     16 S         142.0986  141.0333  168.8814 S.O2    1  UNL1        0.0558
     17 O         143.0730  139.9364  169.1936 O.2     1  UNL1       -0.1544
     18 O         141.1243  142.1302  168.5692 O.2     1  UNL1       -0.1544
     19 N         139.2287  143.1917  161.3404 N.3     1  UNL1       -0.2665
     20 C         140.2776  143.1537  160.2689 C.3     1  UNL1        0.0771
     21 C         141.1816  141.9631  160.1461 C.3     1  UNL1        0.0437
     22 C         142.4167  141.8687  160.9922 C.ar    1  UNL1       -0.0199
     23 C         143.4748  142.9274  160.8954 C.ar    1  UNL1       -0.0033
     24 C         144.7097  142.8330  161.7415 C.ar    1  UNL1        0.0119
     25 C         144.8866  141.6798  162.6843 C.ar    1  UNL1        0.0682
     26 CL        146.1216  141.5855  163.5304 Cl      1  UNL1       -0.0814
     27 C         143.8285  140.6211  162.7811 C.ar    1  UNL1        0.0679
     28 CL        144.0053  139.4679  163.7240 Cl      1  UNL1       -0.0814
     29 C         142.5935  140.7155  161.9350 C.ar    1  UNL1        0.0080
     30 C         139.3981  144.0976  162.5240 C.3     1  UNL1        0.0992
     31 C         140.6731  144.0695  163.3135 C.ar    1  UNL1       -0.0061
     32 C         141.6875  145.1608  163.1391 C.ar    1  UNL1       -0.0029
     33 C         142.9626  145.1327  163.9286 C.ar    1  UNL1       -0.0003
     34 C         143.2233  144.0134  164.8926 C.ar    1  UNL1       -0.0000
     35 C         142.2090  142.9222  165.0670 C.ar    1  UNL1       -0.0003
     36 C         140.9339  142.9503  164.2775 C.ar    1  UNL1       -0.0029
@<TRIPOS>BOND
     1    15    16    1
     2    16    17    2
     3    16    18    2
     4    16    13    1
     5    13     7    1
     6     7     8   ar
     7     8     9   ar
     8     9    10   ar
     9    10     6    1
    10     6     5    1
    11     5     2    1
    12     2     3    1
    13     2     1    1
    14     1    19    1
    15    19    20    1
    16    20    21    1
    17    21    22    1
    18    22    23   ar
    19    23    24   ar
    20    24    25   ar
    21    25    26    1
    22    25    27   ar
    23    27    28    1
    24    27    29   ar
    25    19    30    1
    26    30    31    1
    27    31    32   ar
    28    32    33   ar
    29    33    34   ar
    30    34    35   ar
    31    35    36   ar
    32    10    11   ar
    33    11    12   ar
    34    12     7   ar
    35    29    22   ar
    36    36    31   ar
    37    13    14    1
    38     3     4    1
@<TRIPOS>MOLECULE
*****
 36 38 0 0 0
SMALL
GASTEIGER

@<TRIPOS>ATOM
      1 C         141.5792  144.8377  161.9040 C.3     1  UNL1        0.1058
      2 C         140.1794  145.1749  161.4830 C.3     1  UNL1        0.1700
      3 O         139.8759  145.4497  160.0400 O.3     1  UNL1       -0.3793
      4 H         140.6890  145.3682  159.5173 H       1  UNL1        0.2106
      5 C         139.0833  145.2374  162.5050 C.3     1  UNL1        0.2358
      6 O         137.8471  144.4059  162.3307 O.3     1  UNL1       -0.4728
      7 C         138.1199  139.9158  162.4515 C.ar    1  UNL1        0.0646
      8 C         137.8191  140.6829  163.7049 C.ar    1  UNL1        0.0190
      9 C         137.7282  142.1796  163.6646 C.ar    1  UNL1        0.0382
     10 C         137.9380  142.9092  162.3710 C.ar    1  UNL1        0.1388
     11 C         138.2388  142.1421  161.1176 C.ar    1  UNL1        0.0382
     12 C         138.3297  140.6454  161.1578 C.ar    1  UNL1        0.0190
     13 N         138.2108  138.4191  162.4917 N.pl3   1  UNL1       -0.2187
     14 H         137.4523  137.8715  162.1851 H       1  UNL1        0.1734
     15 C         140.7039  137.0945  163.5065 C.3     1  UNL1        0.1996
     16 S         139.4573  137.7568  162.9991 S.O2    1  UNL1        0.0558
     17 O         140.0295  137.7715  161.6126 O.2     1  UNL1       -0.1544
     18 O         138.8851  137.7422  164.3856 O.2     1  UNL1       -0.1544
     19 N         141.8212  143.7241  162.8794 N.3     1  UNL1       -0.2665
     20 C         141.8522  144.0100  164.3515 C.3     1  UNL1        0.0771
     21 C         140.7715  143.4734  165.2427 C.3     1  UNL1        0.0437
     22 C         141.1006  142.4477  166.2865 C.ar    1  UNL1       -0.0199
     23 C         142.5289  142.2036  166.6742 C.ar    1  UNL1       -0.0033
     24 C         142.8579  141.1779  167.7180 C.ar    1  UNL1        0.0119
     25 C         141.7586  140.3962  168.3741 C.ar    1  UNL1        0.0682
     26 CL        142.0877  139.3704  169.4180 Cl      1  UNL1       -0.0814
     27 C         140.3303  140.6402  167.9864 C.ar    1  UNL1        0.0679
     28 CL        139.2310  139.8585  168.6425 Cl      1  UNL1       -0.0814
     29 C         140.0013  141.6659  166.9426 C.ar    1  UNL1        0.0080
     30 C         142.0323  142.3246  162.3825 C.3     1  UNL1        0.0992
     31 C         143.0418  141.4368  163.0478 C.ar    1  UNL1       -0.0061
     32 C         142.6139  140.1267  163.6399 C.ar    1  UNL1       -0.0029
     33 C         143.6234  139.2389  164.3052 C.ar    1  UNL1       -0.0003
     34 C         145.0609  139.6612  164.3784 C.ar    1  UNL1       -0.0000
     35 C         145.4888  140.9712  163.7863 C.ar    1  UNL1       -0.0003
     36 C         144.4793  141.8590  163.1210 C.ar    1  UNL1       -0.0029
@<TRIPOS>BOND
     1    15    16    1
     2    16    17    2
     3    16    18    2
     4    16    13    1
     5    13     7    1
     6     7     8   ar
     7     8     9   ar
     8     9    10   ar
     9    10     6    1
    10     6     5    1
    11     5     2    1
    12     2     3    1
    13     2     1    1
    14     1    19    1
    15    19    20    1
    16    20    21    1
    17    21    22    1
    18    22    23   ar
    19    23    24   ar
    20    24    25   ar
    21    25    26    1
    22    25    27   ar
    23    27    28    1
    24    27    29   ar
    25    19    30    1
    26    30    31    1
    27    31    32   ar
    28    32    33   ar
    29    33    34   ar
    30    34    35   ar
    31    35    36   ar
    32    10    11   ar
    33    11    12   ar
    34    12     7   ar
    35    29    22   ar
    36    36    31   ar
    37    13    14    1
    38     3     4    1
@<TRIPOS>MOLECULE
*****
 36 38 0 0 0
SMALL
GASTEIGER

@<TRIPOS>ATOM
      1 C         139.1583  138.4998  162.3921 C.3     1  UNL1        0.1058
      2 C         137.8738  138.5200  161.6175 C.3     1  UNL1        0.1700
      3 O         136.9763  137.3182  161.6221 O.3     1  UNL1       -0.3793
      4 H         137.3711  136.6219  162.1700 H       1  UNL1        0.2106
      5 C         137.4870  139.7421  160.8384 C.3     1  UNL1        0.2358
      6 O         137.2513  141.0415  161.5496 O.3     1  UNL1       -0.4728
      7 C         140.5630  144.0730  161.8537 C.ar    1  UNL1        0.0646
      8 C         139.2196  144.3672  162.4527 C.ar    1  UNL1        0.0190
      9 C         138.1157  143.3566  162.3513 C.ar    1  UNL1        0.0382
     10 C         138.3552  142.0520  161.6510 C.ar    1  UNL1        0.1388
     11 C         139.6985  141.7579  161.0520 C.ar    1  UNL1        0.0382
     12 C         140.8024  142.7684  161.1534 C.ar    1  UNL1        0.0190
     13 N         141.6669  145.0835  161.9551 N.pl3   1  UNL1       -0.2187
     14 H         141.6715  145.8688  161.3612 H       1  UNL1        0.1734
     15 C         143.8607  144.7118  163.9673 C.3     1  UNL1        0.1996
     16 S         142.7638  144.8977  162.9612 S.O2    1  UNL1        0.0558
     17 O         143.6260  144.2716  161.9055 O.2     1  UNL1       -0.1544
     18 O         141.9015  145.5237  164.0169 O.2     1  UNL1       -0.1544
     19 N         139.1316  138.5636  163.8905 N.3     1  UNL1       -0.2665
     20 C         139.6906  137.4310  164.6995 C.3     1  UNL1        0.0771
     21 C         141.1388  137.0615  164.5720 C.3     1  UNL1        0.0437
     22 C         142.1795  138.1357  164.4563 C.ar    1  UNL1       -0.0199
     23 C         142.6558  138.8538  165.6840 C.ar    1  UNL1       -0.0033
     24 C         143.6964  139.9279  165.5683 C.ar    1  UNL1        0.0119
     25 C         144.2607  140.2838  164.2248 C.ar    1  UNL1        0.0682
     26 CL        145.3014  141.3579  164.1091 Cl      1  UNL1       -0.0814
     27 C         143.7844  139.5656  162.9971 C.ar    1  UNL1        0.0679
     28 CL        144.3488  139.9215  161.6537 Cl      1  UNL1       -0.0814
     29 C         142.7438  138.4916  163.1129 C.ar    1  UNL1        0.0080
     30 C         138.5458  139.7602  164.5799 C.3     1  UNL1        0.0992
     31 C         139.4102  140.6205  165.4532 C.ar    1  UNL1       -0.0061
     32 C         140.2571  141.6974  164.8422 C.ar    1  UNL1       -0.0029
     33 C         141.1215  142.5577  165.7155 C.ar    1  UNL1       -0.0003
     34 C         141.1392  142.3410  167.1997 C.ar    1  UNL1       -0.0000
     35 C         140.2923  141.2641  167.8106 C.ar    1  UNL1       -0.0003
     36 C         139.4279  140.4039  166.9373 C.ar    1  UNL1       -0.0029
@<TRIPOS>BOND
     1    15    16    1
     2    16    17    2
     3    16    18    2
     4    16    13    1
     5    13     7    1
     6     7     8   ar
     7     8     9   ar
     8     9    10   ar
     9    10     6    1
    10     6     5    1
    11     5     2    1
    12     2     3    1
    13     2     1    1
    14     1    19    1
    15    19    20    1
    16    20    21    1
    17    21    22    1
    18    22    23   ar
    19    23    24   ar
    20    24    25   ar
    21    25    26    1
    22    25    27   ar
    23    27    28    1
    24    27    29   ar
    25    19    30    1
    26    30    31    1
    27    31    32   ar
    28    32    33   ar
    29    33    34   ar
    30    34    35   ar
    31    35    36   ar
    32    10    11   ar
    33    11    12   ar
    34    12     7   ar
    35    29    22   ar
    36    36    31   ar
    37    13    14    1
    38     3     4    1
@<TRIPOS>MOLECULE
*****
 36 38 0 0 0
SMALL
GASTEIGER

@<TRIPOS>ATOM
      1 C         143.0039  142.3825  167.0751 C.3     1  UNL1        0.1058
      2 C         143.6355  142.4099  165.7148 C.3     1  UNL1        0.1700
      3 O         143.7213  141.1520  164.9022 O.3     1  UNL1       -0.3793
      4 H         143.3254  140.4188  165.3987 H       1  UNL1        0.2106
      5 C         144.1813  143.6953  165.1670 C.3     1  UNL1        0.2358
      6 O         144.4512  143.8298  163.6977 O.3     1  UNL1       -0.4728
      7 C         141.0244  144.2154  160.8066 C.ar    1  UNL1        0.0646
      8 C         141.0445  145.0391  162.0599 C.ar    1  UNL1        0.0190
      9 C         142.1868  144.9106  163.0236 C.ar    1  UNL1        0.0382
     10 C         143.3089  143.9583  162.7340 C.ar    1  UNL1        0.1388
     11 C         143.2888  143.1346  161.4806 C.ar    1  UNL1        0.0382
     12 C         142.1465  143.2631  160.5169 C.ar    1  UNL1        0.0190
     13 N         139.8822  144.3439  159.8429 N.pl3   1  UNL1       -0.2187
     14 H         139.6234  145.2304  159.5016 H       1  UNL1        0.1734
     15 C         138.3862  141.8997  158.9552 C.3     1  UNL1        0.1996
     16 S         139.1342  143.1218  159.3991 S.O2    1  UNL1        0.0558
     17 O         139.9454  143.0832  158.1380 O.2     1  UNL1       -0.1544
     18 O         138.3229  143.1604  160.6601 O.2     1  UNL1       -0.1544
     19 N         141.5944  141.8958  167.2379 N.3     1  UNL1       -0.2665
     20 C         140.4456  142.8253  166.9809 C.3     1  UNL1        0.0771
     21 C         140.1544  143.2896  165.5846 C.3     1  UNL1        0.0437
     22 C         139.5660  142.3382  164.5852 C.ar    1  UNL1       -0.0199
     23 C         138.0878  142.0841  164.5717 C.ar    1  UNL1       -0.0033
     24 C         137.4995  141.1327  163.5723 C.ar    1  UNL1        0.0119
     25 C         138.3895  140.4355  162.5864 C.ar    1  UNL1        0.0682
     26 CL        137.8011  139.4842  161.5870 Cl      1  UNL1       -0.0814
     27 C         139.8677  140.6897  162.5999 C.ar    1  UNL1        0.0679
     28 CL        140.7576  139.9926  161.6140 Cl      1  UNL1       -0.0814
     29 C         140.4559  141.6411  163.5993 C.ar    1  UNL1        0.0080
     30 C         141.3339  140.4794  167.6577 C.3     1  UNL1        0.0992
     31 C         140.4977  139.5828  166.7935 C.ar    1  UNL1       -0.0061
     32 C         139.0193  139.4823  167.0264 C.ar    1  UNL1       -0.0029
     33 C         138.1831  138.5856  166.1622 C.ar    1  UNL1       -0.0003
     34 C         138.8254  137.7895  165.0650 C.ar    1  UNL1       -0.0000
     35 C         140.3038  137.8901  164.8321 C.ar    1  UNL1       -0.0003
     36 C         141.1399  138.7867  165.6963 C.ar    1  UNL1       -0.0029
@<TRIPOS>BOND
     1    15    16    1
     2    16    17    2
     3    16    18    2
     4    16    13    1
     5    13     7    1
     6     7     8   ar
     7     8     9   ar
     8     9    10   ar
     9    10     6    1
    10     6     5    1
    11     5     2    1
    12     2     3    1
    13     2     1    1
    14     1    19    1
    15    19    20    1
    16    20    21    1
    17    21    22    1
    18    22    23   ar
    19    23    24   ar
    20    24    25   ar
    21    25    26    1
    22    25    27   ar
    23    27    28    1
    24    27    29   ar
    25    19    30    1
    26    30    31    1
    27    31    32   ar
    28    32    33   ar
    29    33    34   ar
    30    34    35   ar
    31    35    36   ar
    32    10    11   ar
    33    11    12   ar
    34    12     7   ar
    35    29    22   ar
    36    36    31   ar
    37    13    14    1
    38     3     4    1
@<TRIPOS>MOLECULE
*****
 36 38 0 0 0
SMALL
GASTEIGER

@<TRIPOS>ATOM
      1 C         139.9964  145.7021  161.6983 C.3     1  UNL1        0.1058
      2 C         140.5801  145.1287  160.4411 C.3     1  UNL1        0.1700
      3 O         141.9032  145.6222  159.9355 O.3     1  UNL1       -0.3793
      4 H         142.2433  146.3060  160.5336 H       1  UNL1        0.2106
      5 C         139.8406  144.0618  159.6896 C.3     1  UNL1        0.2358
      6 O         138.6681  143.3736  160.3233 O.3     1  UNL1       -0.4728
      7 C         139.0695  139.1398  161.7943 C.ar    1  UNL1        0.0646
      8 C         137.8902  139.9690  162.2084 C.ar    1  UNL1        0.0190
      9 C         137.7564  141.3803  161.7181 C.ar    1  UNL1        0.0382
     10 C         138.8019  141.9623  160.8136 C.ar    1  UNL1        0.1388
     11 C         139.9812  141.1331  160.3995 C.ar    1  UNL1        0.0382
     12 C         140.1150  139.7218  160.8898 C.ar    1  UNL1        0.0190
     13 N         139.2033  137.7285  162.2846 N.pl3   1  UNL1       -0.2187
     14 H         138.6619  137.0131  161.8791 H       1  UNL1        0.1734
     15 C         141.1206  137.0859  164.5007 C.3     1  UNL1        0.1996
     16 S         140.1619  137.4072  163.3926 S.O2    1  UNL1        0.0558
     17 O         139.0991  137.7215  164.4033 O.2     1  UNL1       -0.1544
     18 O         141.2248  137.0929  162.3819 O.2     1  UNL1       -0.1544
     19 N         140.3762  145.1283  163.0312 N.3     1  UNL1       -0.2665
     20 C         141.6822  145.5052  163.6653 C.3     1  UNL1        0.0771
     21 C         142.9733  145.0579  163.0464 C.3     1  UNL1        0.0437
     22 C         143.5076  143.6862  163.3347 C.ar    1  UNL1       -0.0199
     23 C         143.9596  143.3335  164.7208 C.ar    1  UNL1       -0.0033
     24 C         144.4939  141.9618  165.0091 C.ar    1  UNL1        0.0119
     25 C         144.5761  140.9429  163.9113 C.ar    1  UNL1        0.0682
     26 CL        145.1104  139.5712  164.1997 Cl      1  UNL1       -0.0814
     27 C         144.1240  141.2956  162.5253 C.ar    1  UNL1        0.0679
     28 CL        144.2062  140.2767  161.4275 Cl      1  UNL1       -0.0814
     29 C         143.5898  142.6673  162.2370 C.ar    1  UNL1        0.0080
     30 C         139.4499  144.1776  163.7299 C.3     1  UNL1        0.0992
     31 C         140.0057  143.1153  164.6313 C.ar    1  UNL1       -0.0061
     32 C         140.0557  143.3401  166.1136 C.ar    1  UNL1       -0.0029
     33 C         140.6115  142.2777  167.0149 C.ar    1  UNL1       -0.0003
     34 C         141.1173  140.9905  166.4341 C.ar    1  UNL1       -0.0000
     35 C         141.0672  140.7657  164.9519 C.ar    1  UNL1       -0.0003
     36 C         140.5114  141.8281  164.0505 C.ar    1  UNL1       -0.0029
@<TRIPOS>BOND
     1    15    16    1
     2    16    17    2
     3    16    18    2
     4    16    13    1
     5    13     7    1
     6     7     8   ar
     7     8     9   ar
     8     9    10   ar
     9    10     6    1
    10     6     5    1
    11     5     2    1
    12     2     3    1
    13     2     1    1
    14     1    19    1
    15    19    20    1
    16    20    21    1
    17    21    22    1
    18    22    23   ar
    19    23    24   ar
    20    24    25   ar
    21    25    26    1
    22    25    27   ar
    23    27    28    1
    24    27    29   ar
    25    19    30    1
    26    30    31    1
    27    31    32   ar
    28    32    33   ar
    29    33    34   ar
    30    34    35   ar
    31    35    36   ar
    32    10    11   ar
    33    11    12   ar
    34    12     7   ar
    35    29    22   ar
    36    36    31   ar
    37    13    14    1
    38     3     4    1
@<TRIPOS>MOLECULE
*****
 36 38 0 0 0
SMALL
GASTEIGER

@<TRIPOS>ATOM
      1 C         138.7499  142.0465  160.3690 C.3     1  UNL1        0.1058
      2 C         138.7213  142.9858  161.5382 C.3     1  UNL1        0.1700
      3 O         137.4110  143.5064  162.0502 O.3     1  UNL1       -0.3793
      4 H         136.6875  143.1406  161.5176 H       1  UNL1        0.2106
      5 C         140.0030  143.4044  162.1955 C.3     1  UNL1        0.2358
      6 O         139.9909  143.9142  163.6061 O.3     1  UNL1       -0.4728
      7 C         141.3152  141.2419  166.9759 C.ar    1  UNL1        0.0646
      8 C         141.7208  140.9283  165.5662 C.ar    1  UNL1        0.0190
      9 C         141.2793  141.8191  164.4430 C.ar    1  UNL1        0.0382
     10 C         140.4323  143.0234  164.7294 C.ar    1  UNL1        0.1388
     11 C         140.0267  143.3370  166.1390 C.ar    1  UNL1        0.0382
     12 C         140.4681  142.4462  167.2623 C.ar    1  UNL1        0.0190
     13 N         141.7566  140.3511  168.0991 N.pl3   1  UNL1       -0.2187
     14 H         142.5224  139.7451  167.9749 H       1  UNL1        0.1734
     15 C         140.3057  140.4163  170.7242 C.3     1  UNL1        0.1996
     16 S         141.0312  140.3837  169.4116 S.O2    1  UNL1        0.0558
     17 O         139.8831  139.6407  168.7955 O.2     1  UNL1       -0.1544
     18 O         142.1793  141.1268  170.0277 O.2     1  UNL1       -0.1544
     19 N         138.9416  140.5757  160.5930 N.3     1  UNL1       -0.2665
     20 C         140.1485  139.8829  160.0335 C.3     1  UNL1        0.0771
     21 C         141.4946  140.5401  160.1127 C.3     1  UNL1        0.0437
     22 C         142.4298  140.2012  161.2355 C.ar    1  UNL1       -0.0199
     23 C         142.2321  138.9388  162.0211 C.ar    1  UNL1       -0.0033
     24 C         143.1673  138.5999  163.1439 C.ar    1  UNL1        0.0119
     25 C         144.3002  139.5234  163.4809 C.ar    1  UNL1        0.0682
     26 CL        145.2355  139.1845  164.6037 Cl      1  UNL1       -0.0814
     27 C         144.4980  140.7858  162.6952 C.ar    1  UNL1        0.0679
     28 CL        145.6309  141.7093  163.0323 Cl      1  UNL1       -0.0814
     29 C         143.5628  141.1246  161.5725 C.ar    1  UNL1        0.0080
     30 C         137.9261  139.7979  161.3766 C.3     1  UNL1        0.0992
     31 C         138.2233  139.3851  162.7877 C.ar    1  UNL1       -0.0061
     32 C         138.8208  138.0373  163.0649 C.ar    1  UNL1       -0.0029
     33 C         139.1179  137.6246  164.4760 C.ar    1  UNL1       -0.0003
     34 C         138.8177  138.5595  165.6100 C.ar    1  UNL1       -0.0000
     35 C         138.2202  139.9071  165.3328 C.ar    1  UNL1       -0.0003
     36 C         137.9231  140.3199  163.9216 C.ar    1  UNL1       -0.0029
@<TRIPOS>BOND
     1    15    16    1
     2    16    17    2
     3    16    18    2
     4    16    13    1
     5    13     7    1
     6     7     8   ar
     7     8     9   ar
     8     9    10   ar
     9    10     6    1
    10     6     5    1
    11     5     2    1
    12     2     3    1
    13     2     1    1
    14     1    19    1
    15    19    20    1
    16    20    21    1
    17    21    22    1
    18    22    23   ar
    19    23    24   ar
    20    24    25   ar
    21    25    26    1
    22    25    27   ar
    23    27    28    1
    24    27    29   ar
    25    19    30    1
    26    30    31    1
    27    31    32   ar
    28    32    33   ar
    29    33    34   ar
    30    34    35   ar
    31    35    36   ar
    32    10    11   ar
    33    11    12   ar
    34    12     7   ar
    35    29    22   ar
    36    36    31   ar
    37    13    14    1
    38     3     4    1
@<TRIPOS>MOLECULE
*****
 36 38 0 0 0
SMALL
GASTEIGER

@<TRIPOS>ATOM
      1 C         138.8232  144.6279  164.2640 C.3     1  UNL1        0.1058
      2 C         138.8170  144.6576  162.7642 C.3     1  UNL1        0.1700
      3 O         137.6903  144.0207  162.0061 O.3     1  UNL1       -0.3793
      4 H         137.0551  143.6383  162.6316 H       1  UNL1        0.2106
      5 C         139.9376  145.3243  162.0226 C.3     1  UNL1        0.2358
      6 O         141.3523  145.1553  162.4915 O.3     1  UNL1       -0.4728
      7 C         143.6332  141.4159  161.4596 C.ar    1  UNL1        0.0646
      8 C         144.3431  142.5778  162.0888 C.ar    1  UNL1        0.0190
      9 C         143.5828  143.8243  162.4328 C.ar    1  UNL1        0.0382
     10 C         142.1126  143.9088  162.1475 C.ar    1  UNL1        0.1388
     11 C         141.4027  142.7469  161.5182 C.ar    1  UNL1        0.0382
     12 C         142.1630  141.5005  161.1742 C.ar    1  UNL1        0.0190
     13 N         144.3935  140.1695  161.1156 N.pl3   1  UNL1       -0.2187
     14 H         145.3592  140.1155  161.2992 H       1  UNL1        0.1734
     15 C         142.9714  137.8412  159.8679 C.3     1  UNL1        0.1996
     16 S         143.6824  139.0053  160.4918 S.O2    1  UNL1        0.0558
     17 O         144.0135  139.5340  159.1277 O.2     1  UNL1       -0.1544
     18 O         143.3513  138.4766  161.8559 O.2     1  UNL1       -0.1544
     19 N         139.0008  143.3260  164.9875 N.3     1  UNL1       -0.2665
     20 C         140.0728  143.1859  166.0273 C.3     1  UNL1        0.0771
     21 C         141.4818  142.8780  165.6150 C.3     1  UNL1        0.0437
     22 C         142.0845  141.5439  165.9423 C.ar    1  UNL1       -0.0199
     23 C         142.7682  140.7468  164.8713 C.ar    1  UNL1       -0.0033
     24 C         143.3708  139.4128  165.1985 C.ar    1  UNL1        0.0119
     25 C         143.2897  138.8758  166.5968 C.ar    1  UNL1        0.0682
     26 CL        143.8923  137.5417  166.9240 Cl      1  UNL1       -0.0814
     27 C         142.6059  139.6729  167.6678 C.ar    1  UNL1        0.0679
     28 CL        142.5248  139.1360  169.0660 Cl      1  UNL1       -0.0814
     29 C         142.0033  141.0070  167.3405 C.ar    1  UNL1        0.0080
     30 C         138.1063  142.1641  164.6713 C.3     1  UNL1        0.0992
     31 C         138.6748  140.7779  164.5988 C.ar    1  UNL1       -0.0061
     32 C         139.3970  140.3271  163.3637 C.ar    1  UNL1       -0.0029
     33 C         139.9655  138.9409  163.2912 C.ar    1  UNL1       -0.0003
     34 C         139.8117  138.0055  164.4537 C.ar    1  UNL1       -0.0000
     35 C         139.0895  138.4563  165.6887 C.ar    1  UNL1       -0.0003
     36 C         138.5210  139.8425  165.7612 C.ar    1  UNL1       -0.0029
@<TRIPOS>BOND
     1    15    16    1
     2    16    17    2
     3    16    18    2
     4    16    13    1
     5    13     7    1
     6     7     8   ar
     7     8     9   ar
     8     9    10   ar
     9    10     6    1
    10     6     5    1
    11     5     2    1
    12     2     3    1
    13     2     1    1
    14     1    19    1
    15    19    20    1
    16    20    21    1
    17    21    22    1
    18    22    23   ar
    19    23    24   ar
    20    24    25   ar
    21    25    26    1
    22    25    27   ar
    23    27    28    1
    24    27    29   ar
    25    19    30    1
    26    30    31    1
    27    31    32   ar
    28    32    33   ar
    29    33    34   ar
    30    34    35   ar
    31    35    36   ar
    32    10    11   ar
    33    11    12   ar
    34    12     7   ar
    35    29    22   ar
    36    36    31   ar
    37    13    14    1
    38     3     4    1
