@<TRIPOS>MOLECULE
*****
 38 41 0 0 0
SMALL
GASTEIGER

@<TRIPOS>ATOM
      1 C         142.8920  138.7997  157.7140 C.ar    1  UNL1        0.1459
      2 C         141.5254  138.2502  157.9977 C.ar    1  UNL1        0.0391
      3 C         140.7256  138.7859  159.1480 C.ar    1  UNL1        0.0228
      4 C         141.2923  139.8712  160.0146 C.ar    1  UNL1        0.0894
      5 N         140.7419  140.5914  161.2098 N.ar    1  UNL1       -0.2239
      6 C         141.7684  141.5861  161.6647 C.ar    1  UNL1        0.1667
      7 S         142.9531  141.4806  160.7507 S.2     1  UNL1       -0.0512
      8 C         142.6589  140.4207  159.7309 C.ar    1  UNL1        0.0528
      9 C         143.4587  139.8850  158.5806 C.ar    1  UNL1        0.0456
     10 N         141.6338  142.5220  162.8292 N.am    1  UNL1       -0.2482
     11 C         141.7253  141.9940  164.2302 C.2     1  UNL1        0.3096
     12 O         141.9513  140.5301  164.4667 O.2     1  UNL1       -0.2521
     13 N         141.5907  142.9299  165.3947 N.am    1  UNL1       -0.2680
     14 H         141.4855  143.4828  162.6740 H       1  UNL1        0.1583
     15 H         141.4424  143.8907  165.2395 H       1  UNL1        0.1564
     16 C         141.6821  142.4018  166.7957 C.ar    1  UNL1        0.0516
     17 C         143.0010  142.3955  167.5102 C.ar    1  UNL1        0.0156
     18 C         143.0924  141.8674  168.9112 C.ar    1  UNL1        0.0126
     19 C         141.8650  141.3458  169.5977 C.ar    1  UNL1        0.0616
     20 CL        141.9564  140.8178  170.9988 Cl      1  UNL1       -0.0823
     21 C         140.5462  141.3522  168.8832 C.ar    1  UNL1        0.0832
     22 C         140.4547  141.8802  167.4822 C.ar    1  UNL1        0.0194
     23 C         139.3187  140.8306  169.5697 C.3     1  UNL1        0.4194
     24 F         138.0912  140.3090  170.2562 F       1  UNL1       -0.1658
     25 F         139.4245  139.5541  168.7890 F       1  UNL1       -0.1658
     26 F         139.2129  142.1070  170.3504 F       1  UNL1       -0.1658
     27 O         143.6919  138.2640  156.5636 O.3     1  UNL1       -0.4534
     28 C         143.2561  134.3565  156.0235 C.ar    1  UNL1        0.1375
     29 C         143.6279  135.6681  156.6492 C.ar    1  UNL1        0.0612
     30 C         143.3201  136.9524  155.9380 C.ar    1  UNL1        0.1485
     31 C         142.6405  136.9250  154.6010 C.ar    1  UNL1        0.0582
     32 C         142.2688  135.6135  153.9753 C.ar    1  UNL1        0.1021
     33 N         142.5766  134.3292  154.6866 N.ar    1  UNL1       -0.2391
     34 C         145.2411  131.5533  158.0115 C.3     1  UNL1        0.1110
     35 N         144.9333  132.8376  157.3002 N.am    1  UNL1       -0.2979
     36 C         143.5639  133.0722  156.7348 C.2     1  UNL1        0.2637
     37 O         142.5023  132.0226  156.8806 O.2     1  UNL1       -0.2685
     38 H         145.6301  133.5265  157.2045 H       1  UNL1        0.1498
@<TRIPOS>BOND
     1    34    35    1
     2    35    36   am
     3    36    37    2
     4    36    28    1
     5    28    29   ar
     6    29    30   ar
     7    30    27    1
     8    27     1    1
     9     1     2   ar
    10     2     3   ar
    11     3     4   ar
    12     4     5   ar
    13     5     6   ar
    14     6    10    1
    15    10    11   am
    16    11    12    2
    17    11    13   am
    18    13    16    1
    19    16    17   ar
    20    17    18   ar
    21    18    19   ar
    22    19    20    1
    23    19    21   ar
    24    21    23    1
    25    23    24    1
    26    23    25    1
    27    23    26    1
    28    21    22   ar
    29     6     7   ar
    30     7     8   ar
    31     8     9   ar
    32    30    31   ar
    33    31    32   ar
    34    32    33   ar
    35    33    28   ar
    36     9     1   ar
    37     8     4   ar
    38    22    16   ar
    39    35    38    1
    40    10    14    1
    41    13    15    1
@<TRIPOS>MOLECULE
*****
 38 41 0 0 0
SMALL
GASTEIGER

@<TRIPOS>ATOM
      1 C         138.4241  140.6672  157.5013 C.ar    1  UNL1        0.1459
      2 C         139.2991  139.4747  157.2517 C.ar    1  UNL1        0.0391
      3 C         139.7125  138.5956  158.3946 C.ar    1  UNL1        0.0228
      4 C         139.2511  138.9090  159.7870 C.ar    1  UNL1        0.0894
      5 N         139.4951  138.2298  161.1020 N.ar    1  UNL1       -0.2239
      6 C         138.7710  139.0026  162.1643 C.ar    1  UNL1        0.1667
      7 S         138.0794  140.1594  161.5058 S.2     1  UNL1       -0.0512
      8 C         138.3761  140.1015  160.0366 C.ar    1  UNL1        0.0528
      9 C         137.9627  140.9806  158.8937 C.ar    1  UNL1        0.0456
     10 N         138.7433  138.6760  163.6281 N.am    1  UNL1       -0.2482
     11 C         139.6259  139.4265  164.5808 C.2     1  UNL1        0.3096
     12 O         140.5362  140.5036  164.0697 O.2     1  UNL1       -0.2521
     13 N         139.5982  139.0999  166.0445 N.am    1  UNL1       -0.2680
     14 H         138.1458  137.9690  163.9635 H       1  UNL1        0.1583
     15 H         139.0007  138.3930  166.3799 H       1  UNL1        0.1564
     16 C         140.4808  139.8505  166.9972 C.ar    1  UNL1        0.0516
     17 C         141.9591  139.5964  167.0088 C.ar    1  UNL1        0.0156
     18 C         142.8417  140.3469  167.9615 C.ar    1  UNL1        0.0126
     19 C         142.2461  141.3516  168.9027 C.ar    1  UNL1        0.0616
     20 CL        143.1287  142.1021  169.8554 Cl      1  UNL1       -0.0823
     21 C         140.7678  141.6057  168.8911 C.ar    1  UNL1        0.0832
     22 C         139.8852  140.8551  167.9384 C.ar    1  UNL1        0.0194
     23 C         140.1721  142.6104  169.8323 C.3     1  UNL1        0.4194
     24 F         139.5764  143.6151  170.7735 F       1  UNL1       -0.1658
     25 F         140.1476  141.5773  170.9196 F       1  UNL1       -0.1658
     26 F         140.1966  143.6434  168.7451 F       1  UNL1       -0.1658
     27 O         138.0106  141.5464  156.3584 O.3     1  UNL1       -0.4534
     28 C         134.2836  140.3376  155.7271 C.ar    1  UNL1        0.1375
     29 C         135.6141  140.5436  156.3886 C.ar    1  UNL1        0.0612
     30 C         136.6802  141.3404  155.6970 C.ar    1  UNL1        0.1485
     31 C         136.4159  141.9314  154.3438 C.ar    1  UNL1        0.0582
     32 C         135.0855  141.7254  153.6823 C.ar    1  UNL1        0.1021
     33 N         134.0194  140.9286  154.3740 N.ar    1  UNL1       -0.2391
     34 C         130.7222  138.8622  156.6703 C.3     1  UNL1        0.1110
     35 N         131.7884  139.6591  155.9787 N.am    1  UNL1       -0.2979
     36 C         133.2175  139.5407  156.4187 C.2     1  UNL1        0.2637
     37 O         133.5805  138.6255  157.5503 O.2     1  UNL1       -0.2685
     38 H         131.5501  140.2598  155.2360 H       1  UNL1        0.1498
@<TRIPOS>BOND
     1    34    35    1
     2    35    36   am
     3    36    37    2
     4    36    28    1
     5    28    29   ar
     6    29    30   ar
     7    30    27    1
     8    27     1    1
     9     1     2   ar
    10     2     3   ar
    11     3     4   ar
    12     4     5   ar
    13     5     6   ar
    14     6    10    1
    15    10    11   am
    16    11    12    2
    17    11    13   am
    18    13    16    1
    19    16    17   ar
    20    17    18   ar
    21    18    19   ar
    22    19    20    1
    23    19    21   ar
    24    21    23    1
    25    23    24    1
    26    23    25    1
    27    23    26    1
    28    21    22   ar
    29     6     7   ar
    30     7     8   ar
    31     8     9   ar
    32    30    31   ar
    33    31    32   ar
    34    32    33   ar
    35    33    28   ar
    36     9     1   ar
    37     8     4   ar
    38    22    16   ar
    39    35    38    1
    40    10    14    1
    41    13    15    1
@<TRIPOS>MOLECULE
*****
 38 41 0 0 0
SMALL
GASTEIGER

@<TRIPOS>ATOM
      1 C         139.6074  139.1361  157.1394 C.ar    1  UNL1        0.1459
      2 C         138.6209  140.2639  157.2083 C.ar    1  UNL1        0.0391
      3 C         138.0006  140.6385  158.5216 C.ar    1  UNL1        0.0228
      4 C         138.3668  139.8853  159.7661 C.ar    1  UNL1        0.0894
      5 N         137.9223  140.0260  161.1918 N.ar    1  UNL1       -0.2239
      6 C         138.6341  138.9850  162.0041 C.ar    1  UNL1        0.1667
      7 S         139.5185  138.2010  161.0803 S.2     1  UNL1       -0.0512
      8 C         139.3532  138.7574  159.6972 C.ar    1  UNL1        0.0528
      9 C         139.9736  138.3828  158.3839 C.ar    1  UNL1        0.0456
     10 N         138.4874  138.7664  163.4808 N.am    1  UNL1       -0.2482
     11 C         139.4375  139.4276  164.4349 C.2     1  UNL1        0.3096
     12 O         140.5342  140.3074  163.9122 O.2     1  UNL1       -0.2521
     13 N         139.2908  139.2090  165.9116 N.am    1  UNL1       -0.2680
     14 H         137.7676  138.1890  163.8238 H       1  UNL1        0.1583
     15 H         138.5709  138.6316  166.2546 H       1  UNL1        0.1564
     16 C         140.2408  139.8702  166.8657 C.ar    1  UNL1        0.0516
     17 C         141.6962  139.5077  166.8467 C.ar    1  UNL1        0.0156
     18 C         142.6463  140.1689  167.8008 C.ar    1  UNL1        0.0126
     19 C         142.1409  141.1925  168.7738 C.ar    1  UNL1        0.0616
     20 CL        143.0910  141.8536  169.7279 Cl      1  UNL1       -0.0823
     21 C         140.6855  141.5549  168.7928 C.ar    1  UNL1        0.0832
     22 C         139.7355  140.8937  167.8387 C.ar    1  UNL1        0.0194
     23 C         140.1801  142.5786  169.7658 C.3     1  UNL1        0.4194
     24 F         139.6747  143.6021  170.7389 F       1  UNL1       -0.1658
     25 F         140.3445  143.6477  168.7265 F       1  UNL1       -0.1658
     26 F         140.0157  141.5095  170.8051 F       1  UNL1       -0.1658
     27 O         140.2278  138.7614  155.8261 O.3     1  UNL1       -0.4534
     28 C         143.0054  135.9338  156.0253 C.ar    1  UNL1        0.1375
     29 C         141.6672  136.6109  156.0567 C.ar    1  UNL1        0.0612
     30 C         141.5659  138.0843  155.7947 C.ar    1  UNL1        0.1485
     31 C         142.8027  138.8807  155.5012 C.ar    1  UNL1        0.0582
     32 C         144.1408  138.2037  155.4698 C.ar    1  UNL1        0.1021
     33 N         144.2422  136.7302  155.7319 N.ar    1  UNL1       -0.2391
     34 C         144.4790  132.4083  157.0974 C.3     1  UNL1        0.1110
     35 N         144.3777  133.8817  156.8353 N.am    1  UNL1       -0.2979
     36 C         143.1068  134.4604  156.2874 C.2     1  UNL1        0.2637
     37 O         141.9374  133.5656  156.0015 O.2     1  UNL1       -0.2685
     38 H         145.1452  134.4690  157.0229 H       1  UNL1        0.1498
@<TRIPOS>BOND
     1    34    35    1
     2    35    36   am
     3    36    37    2
     4    36    28    1
     5    28    29   ar
     6    29    30   ar
     7    30    27    1
     8    27     1    1
     9     1     2   ar
    10     2     3   ar
    11     3     4   ar
    12     4     5   ar
    13     5     6   ar
    14     6    10    1
    15    10    11   am
    16    11    12    2
    17    11    13   am
    18    13    16    1
    19    16    17   ar
    20    17    18   ar
    21    18    19   ar
    22    19    20    1
    23    19    21   ar
    24    21    23    1
    25    23    24    1
    26    23    25    1
    27    23    26    1
    28    21    22   ar
    29     6     7   ar
    30     7     8   ar
    31     8     9   ar
    32    30    31   ar
    33    31    32   ar
    34    32    33   ar
    35    33    28   ar
    36     9     1   ar
    37     8     4   ar
    38    22    16   ar
    39    35    38    1
    40    10    14    1
    41    13    15    1
@<TRIPOS>MOLECULE
*****
 38 41 0 0 0
SMALL
GASTEIGER

@<TRIPOS>ATOM
      1 C         142.2221  137.1419  156.6707 C.ar    1  UNL1        0.1459
      2 C         140.8218  136.8957  156.1928 C.ar    1  UNL1        0.0391
      3 C         139.6651  137.5438  156.8943 C.ar    1  UNL1        0.0228
      4 C         139.9088  138.4381  158.0736 C.ar    1  UNL1        0.0894
      5 N         138.9747  139.2090  158.9587 N.ar    1  UNL1       -0.2239
      6 C         139.7978  139.9316  159.9836 C.ar    1  UNL1        0.1667
      7 S         141.2405  139.6073  159.7319 S.2     1  UNL1       -0.0512
      8 C         141.3091  138.6843  158.5515 C.ar    1  UNL1        0.0528
      9 C         142.4658  138.0362  157.8501 C.ar    1  UNL1        0.0456
     10 N         139.2706  140.8221  161.0695 N.am    1  UNL1       -0.2482
     11 C         139.4925  140.4619  162.5086 C.2     1  UNL1        0.3096
     12 O         140.2415  139.2111  162.8618 O.2     1  UNL1       -0.2521
     13 N         138.9654  141.3523  163.5945 N.am    1  UNL1       -0.2680
     14 H         138.7791  141.6430  160.8377 H       1  UNL1        0.1583
     15 H         138.4739  142.1732  163.3627 H       1  UNL1        0.1564
     16 C         139.1873  140.9921  165.0336 C.ar    1  UNL1        0.0516
     17 C         138.4557  139.8300  165.6372 C.ar    1  UNL1        0.0156
     18 C         138.6776  139.4698  167.0763 C.ar    1  UNL1        0.0126
     19 C         139.6310  140.2716  167.9118 C.ar    1  UNL1        0.0616
     20 CL        139.8528  139.9113  169.3509 Cl      1  UNL1       -0.0823
     21 C         140.3626  141.4336  167.3082 C.ar    1  UNL1        0.0832
     22 C         140.1407  141.7939  165.8691 C.ar    1  UNL1        0.0194
     23 C         141.3160  142.2355  168.1436 C.3     1  UNL1        0.4194
     24 F         142.2695  143.0373  168.9790 F       1  UNL1       -0.1658
     25 F         140.2284  143.2271  168.4332 F       1  UNL1       -0.1658
     26 F         142.4036  141.2439  167.8541 F       1  UNL1       -0.1658
     27 O         143.3789  136.4938  155.9693 O.3     1  UNL1       -0.4534
     28 C         143.9404  132.5999  156.4917 C.ar    1  UNL1        0.1375
     29 C         143.9477  134.0791  156.7411 C.ar    1  UNL1        0.0612
     30 C         143.3715  135.0147  155.7200 C.ar    1  UNL1        0.1485
     31 C         142.7880  134.4711  154.4495 C.ar    1  UNL1        0.0582
     32 C         142.7806  132.9920  154.2001 C.ar    1  UNL1        0.1021
     33 N         143.3568  132.0564  155.2213 N.ar    1  UNL1       -0.2391
     34 C         144.4417  129.4012  158.7867 C.3     1  UNL1        0.1110
     35 N         143.8655  130.3368  157.7656 N.am    1  UNL1       -0.2979
     36 C         144.5166  131.6644  157.5128 C.2     1  UNL1        0.2637
     37 O         145.7438  132.0562  158.2811 O.2     1  UNL1       -0.2685
     38 H         143.0600  130.0796  157.2613 H       1  UNL1        0.1498
@<TRIPOS>BOND
     1    34    35    1
     2    35    36   am
     3    36    37    2
     4    36    28    1
     5    28    29   ar
     6    29    30   ar
     7    30    27    1
     8    27     1    1
     9     1     2   ar
    10     2     3   ar
    11     3     4   ar
    12     4     5   ar
    13     5     6   ar
    14     6    10    1
    15    10    11   am
    16    11    12    2
    17    11    13   am
    18    13    16    1
    19    16    17   ar
    20    17    18   ar
    21    18    19   ar
    22    19    20    1
    23    19    21   ar
    24    21    23    1
    25    23    24    1
    26    23    25    1
    27    23    26    1
    28    21    22   ar
    29     6     7   ar
    30     7     8   ar
    31     8     9   ar
    32    30    31   ar
    33    31    32   ar
    34    32    33   ar
    35    33    28   ar
    36     9     1   ar
    37     8     4   ar
    38    22    16   ar
    39    35    38    1
    40    10    14    1
    41    13    15    1
@<TRIPOS>MOLECULE
*****
 38 41 0 0 0
SMALL
GASTEIGER

@<TRIPOS>ATOM
      1 C         141.2968  138.5092  156.3528 C.ar    1  UNL1        0.1459
      2 C         140.1761  139.3230  155.7771 C.ar    1  UNL1        0.0391
      3 C         139.0787  139.8245  156.6682 C.ar    1  UNL1        0.0228
      4 C         139.1020  139.5121  158.1351 C.ar    1  UNL1        0.0894
      5 N         138.1658  139.8674  159.2520 N.ar    1  UNL1       -0.2239
      6 C         138.7080  139.2732  160.5180 C.ar    1  UNL1        0.1667
      7 S         139.9792  138.5506  160.1836 S.2     1  UNL1       -0.0512
      8 C         140.2227  138.6982  158.7109 C.ar    1  UNL1        0.0528
      9 C         141.3201  138.1968  157.8198 C.ar    1  UNL1        0.0456
     10 N         138.0879  139.3823  161.8795 N.am    1  UNL1       -0.2482
     11 C         138.8289  140.0690  162.9883 C.2     1  UNL1        0.3096
     12 O         140.1900  140.6466  162.7356 O.2     1  UNL1       -0.2521
     13 N         138.2088  140.1782  164.3497 N.am    1  UNL1       -0.2680
     14 H         137.1945  139.0032  162.0454 H       1  UNL1        0.1583
     15 H         137.3155  139.7991  164.5156 H       1  UNL1        0.1564
     16 C         138.9498  140.8649  165.4585 C.ar    1  UNL1        0.0516
     17 C         139.3254  142.3110  165.3264 C.ar    1  UNL1        0.0156
     18 C         140.0664  142.9978  166.4352 C.ar    1  UNL1        0.0126
     19 C         140.4318  142.2383  167.6760 C.ar    1  UNL1        0.0616
     20 CL        141.1728  142.9250  168.7848 Cl      1  UNL1       -0.0823
     21 C         140.0561  140.7922  167.8081 C.ar    1  UNL1        0.0832
     22 C         139.3151  140.1055  166.6993 C.ar    1  UNL1        0.0194
     23 C         140.4215  140.0327  169.0490 C.3     1  UNL1        0.4194
     24 F         140.7868  139.2732  170.2898 F       1  UNL1       -0.1658
     25 F         141.7848  139.7646  168.4835 F       1  UNL1       -0.1658
     26 F         139.0583  140.3007  169.6144 F       1  UNL1       -0.1658
     27 O         142.3943  138.0077  155.4617 O.3     1  UNL1       -0.4534
     28 C         143.1833  134.1237  155.2556 C.ar    1  UNL1        0.1375
     29 C         143.1901  135.5485  155.7247 C.ar    1  UNL1        0.0612
     30 C         142.3875  136.5829  154.9927 C.ar    1  UNL1        0.1485
     31 C         141.5781  136.1925  153.7916 C.ar    1  UNL1        0.0582
     32 C         141.5714  134.7678  153.3226 C.ar    1  UNL1        0.1021
     33 N         142.3740  133.7334  154.0546 N.ar    1  UNL1       -0.2391
     34 C         145.3909  132.3794  158.0546 C.3     1  UNL1        0.1110
     35 N         144.5883  133.4138  157.3226 N.am    1  UNL1       -0.2979
     36 C         143.9859  133.0893  155.9877 C.2     1  UNL1        0.2637
     37 O         144.1862  131.7305  155.3848 O.2     1  UNL1       -0.2685
     38 H         144.4568  134.3056  157.7183 H       1  UNL1        0.1498
@<TRIPOS>BOND
     1    34    35    1
     2    35    36   am
     3    36    37    2
     4    36    28    1
     5    28    29   ar
     6    29    30   ar
     7    30    27    1
     8    27     1    1
     9     1     2   ar
    10     2     3   ar
    11     3     4   ar
    12     4     5   ar
    13     5     6   ar
    14     6    10    1
    15    10    11   am
    16    11    12    2
    17    11    13   am
    18    13    16    1
    19    16    17   ar
    20    17    18   ar
    21    18    19   ar
    22    19    20    1
    23    19    21   ar
    24    21    23    1
    25    23    24    1
    26    23    25    1
    27    23    26    1
    28    21    22   ar
    29     6     7   ar
    30     7     8   ar
    31     8     9   ar
    32    30    31   ar
    33    31    32   ar
    34    32    33   ar
    35    33    28   ar
    36     9     1   ar
    37     8     4   ar
    38    22    16   ar
    39    35    38    1
    40    10    14    1
    41    13    15    1
@<TRIPOS>MOLECULE
*****
 38 41 0 0 0
SMALL
GASTEIGER

@<TRIPOS>ATOM
      1 C         139.8035  143.7554  156.5380 C.ar    1  UNL1        0.1459
      2 C         139.7216  145.1681  157.0356 C.ar    1  UNL1        0.0391
      3 C         140.4901  145.5789  158.2565 C.ar    1  UNL1        0.0228
      4 C         141.3404  144.5770  158.9798 C.ar    1  UNL1        0.0894
      5 N         142.2040  144.6891  160.2012 N.ar    1  UNL1       -0.2239
      6 C         142.8195  143.3456  160.4585 C.ar    1  UNL1        0.1667
      7 S         142.3364  142.4033  159.3961 S.2     1  UNL1       -0.0512
      8 C         141.4222  143.1644  158.4822 C.ar    1  UNL1        0.0528
      9 C         140.6538  142.7536  157.2613 C.ar    1  UNL1        0.0456
     10 N         143.7542  143.0043  161.5810 N.am    1  UNL1       -0.2482
     11 C         143.2186  142.4016  162.8459 C.2     1  UNL1        0.3096
     12 O         141.7484  142.1401  162.9882 O.2     1  UNL1       -0.2521
     13 N         144.1531  142.0603  163.9684 N.am    1  UNL1       -0.2680
     14 H         144.7191  143.1759  161.4876 H       1  UNL1        0.1583
     15 H         145.1180  142.2319  163.8750 H       1  UNL1        0.1564
     16 C         143.6175  141.4575  165.2332 C.ar    1  UNL1        0.0516
     17 C         143.3800  139.9789  165.3175 C.ar    1  UNL1        0.0156
     18 C         142.8444  139.3762  166.5823 C.ar    1  UNL1        0.0126
     19 C         142.5464  140.2521  167.7630 C.ar    1  UNL1        0.0616
     20 CL        142.0108  139.6493  169.0278 Cl      1  UNL1       -0.0823
     21 C         142.7840  141.7307  167.6787 C.ar    1  UNL1        0.0832
     22 C         143.3195  142.3334  166.4139 C.ar    1  UNL1        0.0194
     23 C         142.4859  142.6067  168.8594 C.3     1  UNL1        0.4194
     24 F         142.1880  143.4826  170.0400 F       1  UNL1       -0.1658
     25 F         141.0654  142.7453  168.3980 F       1  UNL1       -0.1658
     26 F         143.9064  142.4680  169.3208 F       1  UNL1       -0.1658
     27 O         139.0350  143.3446  155.3170 O.3     1  UNL1       -0.4534
     28 C         136.1610  140.6366  155.7131 C.ar    1  UNL1        0.1375
     29 C         136.8829  141.9513  155.7378 C.ar    1  UNL1        0.0612
     30 C         138.3131  142.0300  155.2923 C.ar    1  UNL1        0.1485
     31 C         139.0213  140.7941  154.8221 C.ar    1  UNL1        0.0582
     32 C         138.2993  139.4795  154.7974 C.ar    1  UNL1        0.1021
     33 N         136.8692  139.4008  155.2429 N.ar    1  UNL1       -0.2391
     34 C         132.2411  141.2385  155.8621 C.3     1  UNL1        0.1110
     35 N         133.6712  141.3173  155.4166 N.am    1  UNL1       -0.2979
     36 C         134.7308  140.5579  156.1586 C.2     1  UNL1        0.2637
     37 O         134.3602  139.7198  157.3462 O.2     1  UNL1       -0.2685
     38 H         133.9144  141.8673  154.6371 H       1  UNL1        0.1498
@<TRIPOS>BOND
     1    34    35    1
     2    35    36   am
     3    36    37    2
     4    36    28    1
     5    28    29   ar
     6    29    30   ar
     7    30    27    1
     8    27     1    1
     9     1     2   ar
    10     2     3   ar
    11     3     4   ar
    12     4     5   ar
    13     5     6   ar
    14     6    10    1
    15    10    11   am
    16    11    12    2
    17    11    13   am
    18    13    16    1
    19    16    17   ar
    20    17    18   ar
    21    18    19   ar
    22    19    20    1
    23    19    21   ar
    24    21    23    1
    25    23    24    1
    26    23    25    1
    27    23    26    1
    28    21    22   ar
    29     6     7   ar
    30     7     8   ar
    31     8     9   ar
    32    30    31   ar
    33    31    32   ar
    34    32    33   ar
    35    33    28   ar
    36     9     1   ar
    37     8     4   ar
    38    22    16   ar
    39    35    38    1
    40    10    14    1
    41    13    15    1
@<TRIPOS>MOLECULE
*****
 38 41 0 0 0
SMALL
GASTEIGER

@<TRIPOS>ATOM
      1 C         138.6666  138.8823  165.4908 C.ar    1  UNL1        0.1459
      2 C         139.4864  137.7167  165.0225 C.ar    1  UNL1        0.0391
      3 C         139.6618  137.4648  163.5543 C.ar    1  UNL1        0.0228
      4 C         139.0175  138.3786  162.5543 C.ar    1  UNL1        0.0894
      5 N         139.0134  138.3818  161.0543 N.ar    1  UNL1       -0.2239
      6 C         138.1911  139.5494  160.5955 C.ar    1  UNL1        0.1667
      7 S         137.6871  140.2678  161.8120 S.2     1  UNL1       -0.0512
      8 C         138.1978  139.5442  163.0226 C.ar    1  UNL1        0.0528
      9 C         138.0224  139.7961  164.4908 C.ar    1  UNL1        0.0456
     10 N         137.9204  139.9316  159.1704 N.am    1  UNL1       -0.2482
     11 C         138.7264  141.0158  158.5187 C.2     1  UNL1        0.3096
     12 O         139.8031  141.7179  159.2920 O.2     1  UNL1       -0.2521
     13 N         138.4557  141.3980  157.0937 N.am    1  UNL1       -0.2680
     14 H         137.2138  139.4707  158.6629 H       1  UNL1        0.1583
     15 H         137.7491  140.9372  156.5862 H       1  UNL1        0.1564
     16 C         139.2617  142.4823  156.4419 C.ar    1  UNL1        0.0516
     17 C         140.4844  142.1328  155.6464 C.ar    1  UNL1        0.0156
     18 C         141.2903  143.2170  154.9946 C.ar    1  UNL1        0.0126
     19 C         140.8736  144.6508  155.1384 C.ar    1  UNL1        0.0616
     20 CL        141.6796  145.7350  154.4866 Cl      1  UNL1       -0.0823
     21 C         139.6510  145.0002  155.9339 C.ar    1  UNL1        0.0832
     22 C         138.8450  143.9160  156.5857 C.ar    1  UNL1        0.0194
     23 C         139.2342  146.4340  156.0777 C.3     1  UNL1        0.4194
     24 F         138.8175  147.8678  156.2214 F       1  UNL1       -0.1658
     25 F         140.1770  146.5922  157.2337 F       1  UNL1       -0.1658
     26 F         138.2915  146.2759  154.9218 F       1  UNL1       -0.1658
     27 O         138.4912  139.1342  166.9591 O.3     1  UNL1       -0.4534
     28 C         141.6550  141.4080  167.7143 C.ar    1  UNL1        0.1375
     29 C         140.6681  140.5522  166.9768 C.ar    1  UNL1        0.0612
     30 C         139.4780  139.9900  167.6964 C.ar    1  UNL1        0.1485
     31 C         139.2749  140.2836  169.1533 C.ar    1  UNL1        0.0582
     32 C         140.2618  141.1394  169.8907 C.ar    1  UNL1        0.1021
     33 N         141.4518  141.7016  169.1711 N.ar    1  UNL1       -0.2391
     34 C         144.2337  142.2457  164.8162 C.3     1  UNL1        0.1110
     35 N         143.0437  141.6835  165.5358 N.am    1  UNL1       -0.2979
     36 C         142.8450  141.9702  166.9947 C.2     1  UNL1        0.2637
     37 O         143.8363  142.8191  167.7340 O.2     1  UNL1       -0.2685
     38 H         142.3930  141.1264  165.0505 H       1  UNL1        0.1498
@<TRIPOS>BOND
     1    34    35    1
     2    35    36   am
     3    36    37    2
     4    36    28    1
     5    28    29   ar
     6    29    30   ar
     7    30    27    1
     8    27     1    1
     9     1     2   ar
    10     2     3   ar
    11     3     4   ar
    12     4     5   ar
    13     5     6   ar
    14     6    10    1
    15    10    11   am
    16    11    12    2
    17    11    13   am
    18    13    16    1
    19    16    17   ar
    20    17    18   ar
    21    18    19   ar
    22    19    20    1
    23    19    21   ar
    24    21    23    1
    25    23    24    1
    26    23    25    1
    27    23    26    1
    28    21    22   ar
    29     6     7   ar
    30     7     8   ar
    31     8     9   ar
    32    30    31   ar
    33    31    32   ar
    34    32    33   ar
    35    33    28   ar
    36     9     1   ar
    37     8     4   ar
    38    22    16   ar
    39    35    38    1
    40    10    14    1
    41    13    15    1
@<TRIPOS>MOLECULE
*****
 38 41 0 0 0
SMALL
GASTEIGER

@<TRIPOS>ATOM
      1 C         139.6150  141.9070  162.4167 C.ar    1  UNL1        0.1459
      2 C         138.6629  142.1460  161.2825 C.ar    1  UNL1        0.0391
      3 C         139.0128  141.6831  159.8994 C.ar    1  UNL1        0.0228
      4 C         140.3148  140.9811  159.6504 C.ar    1  UNL1        0.0894
      5 N         140.9276  140.4153  158.4036 N.ar    1  UNL1       -0.2239
      6 C         142.2585  139.8266  158.7673 C.ar    1  UNL1        0.1667
      7 S         142.4682  140.0286  160.2388 S.2     1  UNL1       -0.0512
      8 C         141.2669  140.7421  160.7845 C.ar    1  UNL1        0.0528
      9 C         140.9170  141.2051  162.1677 C.ar    1  UNL1        0.0456
     10 N         143.2123  139.1540  157.8249 N.am    1  UNL1       -0.2482
     11 C         142.8683  137.8178  157.2366 C.2     1  UNL1        0.3096
     12 O         141.5704  137.1542  157.5906 O.2     1  UNL1       -0.2521
     13 N         143.8220  137.1452  156.2943 N.am    1  UNL1       -0.2680
     14 H         144.0641  139.5896  157.5926 H       1  UNL1        0.1583
     15 H         144.6737  137.5808  156.0619 H       1  UNL1        0.1564
     16 C         143.4779  135.8090  155.7060 C.ar    1  UNL1        0.0516
     17 C         142.7515  135.7308  154.3960 C.ar    1  UNL1        0.0156
     18 C         142.4075  134.3946  153.8077 C.ar    1  UNL1        0.0126
     19 C         142.7898  133.1365  154.5294 C.ar    1  UNL1        0.0616
     20 CL        142.4458  131.8002  153.9411 Cl      1  UNL1       -0.0823
     21 C         143.5162  133.2146  155.8394 C.ar    1  UNL1        0.0832
     22 C         143.8603  134.5509  156.4277 C.ar    1  UNL1        0.0194
     23 C         143.8986  131.9565  156.5612 C.3     1  UNL1        0.4194
     24 F         144.2809  130.6984  157.2830 F       1  UNL1       -0.1658
     25 F         145.2962  132.0763  156.0297 F       1  UNL1       -0.1658
     26 F         142.5011  131.8367  157.0927 F       1  UNL1       -0.1658
     27 O         139.2651  142.3700  163.7999 O.3     1  UNL1       -0.4534
     28 C         139.7645  140.5719  167.3024 C.ar    1  UNL1        0.1375
     29 C         139.8971  141.5684  166.1890 C.ar    1  UNL1        0.0612
     30 C         139.1326  141.3736  164.9132 C.ar    1  UNL1        0.1485
     31 C         138.2356  140.1823  164.7508 C.ar    1  UNL1        0.0582
     32 C         138.1031  139.1859  165.8641 C.ar    1  UNL1        0.1021
     33 N         138.8676  139.3807  167.1399 N.ar    1  UNL1       -0.2391
     34 C         140.6871  141.7462  170.9793 C.3     1  UNL1        0.1110
     35 N         139.9226  141.5515  169.7035 N.am    1  UNL1       -0.2979
     36 C         140.5290  140.7666  168.5782 C.2     1  UNL1        0.2637
     37 O         141.8998  140.1766  168.7286 O.2     1  UNL1       -0.2685
     38 H         139.0229  141.9387  169.6048 H       1  UNL1        0.1498
@<TRIPOS>BOND
     1    34    35    1
     2    35    36   am
     3    36    37    2
     4    36    28    1
     5    28    29   ar
     6    29    30   ar
     7    30    27    1
     8    27     1    1
     9     1     2   ar
    10     2     3   ar
    11     3     4   ar
    12     4     5   ar
    13     5     6   ar
    14     6    10    1
    15    10    11   am
    16    11    12    2
    17    11    13   am
    18    13    16    1
    19    16    17   ar
    20    17    18   ar
    21    18    19   ar
    22    19    20    1
    23    19    21   ar
    24    21    23    1
    25    23    24    1
    26    23    25    1
    27    23    26    1
    28    21    22   ar
    29     6     7   ar
    30     7     8   ar
    31     8     9   ar
    32    30    31   ar
    33    31    32   ar
    34    32    33   ar
    35    33    28   ar
    36     9     1   ar
    37     8     4   ar
    38    22    16   ar
    39    35    38    1
    40    10    14    1
    41    13    15    1
@<TRIPOS>MOLECULE
*****
 38 41 0 0 0
SMALL
GASTEIGER

@<TRIPOS>ATOM
      1 C         141.8019  143.7561  155.7439 C.ar    1  UNL1        0.1459
      2 C         142.3803  145.0955  156.0923 C.ar    1  UNL1        0.0391
      3 C         142.0304  145.7470  157.3973 C.ar    1  UNL1        0.0228
      4 C         141.1021  145.0591  158.3539 C.ar    1  UNL1        0.0894
      5 N         140.5790  145.4531  159.7034 N.ar    1  UNL1       -0.2239
      6 C         139.6774  144.3572  160.1891 C.ar    1  UNL1        0.1667
      7 S         139.6432  143.2859  159.1397 S.2     1  UNL1       -0.0512
      8 C         140.5237  143.7197  158.0055 C.ar    1  UNL1        0.0528
      9 C         140.8736  143.0682  156.7005 C.ar    1  UNL1        0.0456
     10 N         138.9394  144.3362  161.4949 N.am    1  UNL1       -0.2482
     11 C         139.3824  143.4142  162.5920 C.2     1  UNL1        0.3096
     12 O         140.5635  142.5132  162.3833 O.2     1  UNL1       -0.2521
     13 N         138.6445  143.3931  163.8977 N.am    1  UNL1       -0.2680
     14 H         138.1643  144.9275  161.6318 H       1  UNL1        0.1583
     15 H         137.8694  143.9844  164.0346 H       1  UNL1        0.1564
     16 C         139.0876  142.4711  164.9948 C.ar    1  UNL1        0.0516
     17 C         139.9773  142.9811  166.0895 C.ar    1  UNL1        0.0156
     18 C         140.4203  142.0591  167.1866 C.ar    1  UNL1        0.0126
     19 C         139.9737  140.6272  167.1890 C.ar    1  UNL1        0.0616
     20 CL        140.4168  139.7052  168.2861 Cl      1  UNL1       -0.0823
     21 C         139.0840  140.1172  166.0943 C.ar    1  UNL1        0.0832
     22 C         138.6410  141.0392  164.9972 C.ar    1  UNL1        0.0194
     23 C         138.6373  138.6852  166.0967 C.3     1  UNL1        0.4194
     24 F         138.1906  137.2533  166.0991 F       1  UNL1       -0.1658
     25 F         139.8815  138.2959  165.3547 F       1  UNL1       -0.1658
     26 F         137.3932  139.0746  166.8387 F       1  UNL1       -0.1658
     27 O         142.1518  143.1045  154.4388 O.3     1  UNL1       -0.4534
     28 C         145.9111  142.0041  155.0766 C.ar    1  UNL1        0.1375
     29 C         144.5886  142.6928  155.2403 C.ar    1  UNL1        0.0612
     30 C         143.4743  142.4160  154.2751 C.ar    1  UNL1        0.1485
     31 C         143.6825  141.4505  153.1461 C.ar    1  UNL1        0.0582
     32 C         145.0050  140.7619  152.9824 C.ar    1  UNL1        0.1021
     33 N         146.1193  141.0387  153.9476 N.ar    1  UNL1       -0.2391
     34 C         147.8850  143.3923  158.2273 C.3     1  UNL1        0.1110
     35 N         146.7707  143.1154  157.2621 N.am    1  UNL1       -0.2979
     36 C         147.0254  142.2810  156.0418 C.2     1  UNL1        0.2637
     37 O         148.3944  141.7234  155.7869 O.2     1  UNL1       -0.2685
     38 H         145.8722  143.4814  157.4294 H       1  UNL1        0.1498
@<TRIPOS>BOND
     1    34    35    1
     2    35    36   am
     3    36    37    2
     4    36    28    1
     5    28    29   ar
     6    29    30   ar
     7    30    27    1
     8    27     1    1
     9     1     2   ar
    10     2     3   ar
    11     3     4   ar
    12     4     5   ar
    13     5     6   ar
    14     6    10    1
    15    10    11   am
    16    11    12    2
    17    11    13   am
    18    13    16    1
    19    16    17   ar
    20    17    18   ar
    21    18    19   ar
    22    19    20    1
    23    19    21   ar
    24    21    23    1
    25    23    24    1
    26    23    25    1
    27    23    26    1
    28    21    22   ar
    29     6     7   ar
    30     7     8   ar
    31     8     9   ar
    32    30    31   ar
    33    31    32   ar
    34    32    33   ar
    35    33    28   ar
    36     9     1   ar
    37     8     4   ar
    38    22    16   ar
    39    35    38    1
    40    10    14    1
    41    13    15    1
