@<TRIPOS>MOLECULE
*****
 38 42 0 0 0
SMALL
GASTEIGER

@<TRIPOS>ATOM
      1 C         142.8581  139.5943  164.9818 C.ar    1  UNL1        0.0511
      2 C         144.0977  139.7595  164.1535 C.ar    1  UNL1        0.0160
      3 C         144.2096  139.0715  162.8253 C.ar    1  UNL1        0.0190
      4 C         143.0818  138.2182  162.3253 C.ar    1  UNL1        0.0850
      5 C         141.8422  138.0530  163.1536 C.ar    1  UNL1        0.1533
      6 C         141.7303  138.7410  164.4818 C.ar    1  UNL1        0.0527
      7 C         142.4108  142.3463  170.2946 C.2     1  UNL1        0.2419
      8 O         142.9846  143.7200  170.4783 O.2     1  UNL1       -0.2734
      9 N         142.5226  141.6582  168.9663 N.am    1  UNL1       -0.2749
     10 C         141.9488  140.2846  168.7827 C.3     1  UNL1        0.1149
     11 C         142.0607  139.5966  167.4544 C.3     1  UNL1        0.1123
     12 N         142.7463  140.2823  166.3099 N.pl3   1  UNL1       -0.3040
     13 C         143.3200  141.6560  166.4937 C.3     1  UNL1        0.1123
     14 C         143.2082  142.3439  167.8219 C.3     1  UNL1        0.1149
     15 C         141.7252  141.6606  171.4390 C.3     1  UNL1        0.1552
     16 C         139.5149  142.9355  170.9501 C.3     1  UNL1        0.0862
     17 N         140.3600  142.1069  171.8716 N.3     1  UNL1       -0.2886
     18 H         139.8269  141.2628  172.0808 H       1  UNL1        0.1237
     19 N         143.1936  137.5301  160.9971 N.pl3   1  UNL1       -0.2802
     20 H         143.6307  136.6503  160.9338 H       1  UNL1        0.1552
     21 C         142.6394  138.1827  159.7655 C.ar    1  UNL1        0.2208
     22 N         142.8732  137.5642  158.4191 N.ar    1  UNL1       -0.2111
     23 C         142.3190  138.2167  157.1874 C.ar    1  UNL1        0.1147
     24 C         141.5309  139.4879  157.3021 C.ar    1  UNL1        0.0960
     25 CL        140.9767  140.1405  156.0704 Cl      1  UNL1       -0.0790
     26 C         141.2971  140.1065  158.6485 C.ar    1  UNL1        0.1138
     27 N         141.8513  139.4539  159.8802 N.ar    1  UNL1       -0.2111
     28 C         140.5091  141.3776  158.7632 C.ar    1  UNL1        0.1031
     29 C         139.0904  141.4959  159.2360 C.ar    1  UNL1        0.1196
     30 N         138.7058  142.9450  159.1903 N.ar    1  UNL1       -0.2248
     31 C         139.8868  143.7223  158.6893 C.ar    1  UNL1        0.1479
     32 C         140.0914  145.1872  158.4393 C.ar    1  UNL1        0.0374
     33 C         141.4104  145.6832  157.9254 C.ar    1  UNL1        0.0046
     34 C         142.5248  144.7145  157.6615 C.ar    1  UNL1        0.0191
     35 C         142.3203  143.2497  157.9115 C.ar    1  UNL1        0.0815
     36 N         141.0013  142.7536  158.4254 N.ar    1  UNL1       -0.2874
     37 O         140.7144  137.1997  162.6536 O.3     1  UNL1       -0.4701
     38 C         139.4284  137.8367  162.2170 C.3     1  UNL1        0.2525
@<TRIPOS>BOND
     1    16    17    1
     2    17    15    1
     3    15     7    1
     4     7     8    2
     5     7     9   am
     6     9    10    1
     7    10    11    1
     8    11    12    1
     9    12     1    1
    10     1     2   ar
    11     2     3   ar
    12     3     4   ar
    13     4    19    1
    14    19    21    1
    15    21    22   ar
    16    22    23   ar
    17    23    24   ar
    18    24    25    1
    19    24    26   ar
    20    26    28    1
    21    28    29   ar
    22    29    30   ar
    23    30    31   ar
    24    31    32   ar
    25    32    33   ar
    26    33    34   ar
    27    34    35   ar
    28    35    36   ar
    29    26    27   ar
    30     4     5   ar
    31     5    37    1
    32    37    38    1
    33     5     6   ar
    34    12    13    1
    35    13    14    1
    36    14     9    1
    37     6     1   ar
    38    27    21   ar
    39    36    28   ar
    40    36    31   ar
    41    17    18    1
    42    19    20    1
@<TRIPOS>MOLECULE
*****
 38 42 0 0 0
SMALL
GASTEIGER

@<TRIPOS>ATOM
      1 C         141.1472  143.4856  164.6267 C.ar    1  UNL1        0.0511
      2 C         139.9019  144.2953  164.4178 C.ar    1  UNL1        0.0160
      3 C         139.7205  145.0792  163.1517 C.ar    1  UNL1        0.0190
      4 C         140.7845  145.0534  162.0947 C.ar    1  UNL1        0.0850
      5 C         142.0298  144.2436  162.3037 C.ar    1  UNL1        0.1533
      6 C         142.2111  143.4597  163.5696 C.ar    1  UNL1        0.0527
      7 C         141.8720  140.3502  169.6906 C.2     1  UNL1        0.2419
      8 O         142.9988  139.3672  169.8094 O.2     1  UNL1       -0.2734
      9 N         141.6908  141.1341  168.4246 N.am    1  UNL1       -0.2749
     10 C         140.5640  142.1170  168.3060 C.3     1  UNL1        0.1149
     11 C         140.3828  142.9009  167.0399 C.3     1  UNL1        0.1123
     12 N         141.3284  142.7017  165.8926 N.pl3   1  UNL1       -0.3040
     13 C         142.4552  141.7187  166.0113 C.3     1  UNL1        0.1123
     14 C         142.6363  140.9349  167.2773 C.3     1  UNL1        0.1149
     15 C         140.9265  140.5494  170.8379 C.3     1  UNL1        0.1552
     16 C         138.4006  140.1199  170.4072 C.3     1  UNL1        0.0862
     17 N         139.7161  139.6737  170.9730 N.3     1  UNL1       -0.2886
     18 H         139.9435  138.7860  170.5249 H       1  UNL1        0.1237
     19 N         140.6033  145.8373  160.8288 N.pl3   1  UNL1       -0.2802
     20 H         140.7477  146.8111  160.8278 H       1  UNL1        0.1552
     21 C         140.2019  145.1373  159.5642 C.ar    1  UNL1        0.2208
     22 N         139.4302  143.8527  159.6306 N.ar    1  UNL1       -0.2111
     23 C         139.0288  143.1527  158.3661 C.ar    1  UNL1        0.1147
     24 C         139.3992  143.7372  157.0353 C.ar    1  UNL1        0.0960
     25 CL        138.9979  143.0372  155.7707 Cl      1  UNL1       -0.0790
     26 C         140.1710  145.0218  156.9689 C.ar    1  UNL1        0.1138
     27 N         140.5723  145.7218  158.2334 N.ar    1  UNL1       -0.2111
     28 C         140.5414  145.6064  155.6381 C.ar    1  UNL1        0.1031
     29 C         141.3759  144.9407  154.5842 C.ar    1  UNL1        0.1196
     30 N         141.4926  145.8821  153.4223 N.ar    1  UNL1       -0.2248
     31 C         140.7302  147.1295  153.7580 C.ar    1  UNL1        0.1479
     32 C         140.4954  148.3986  152.9936 C.ar    1  UNL1        0.0374
     33 C         139.6726  149.4973  153.5988 C.ar    1  UNL1        0.0046
     34 C         139.0847  149.3269  154.9682 C.ar    1  UNL1        0.0191
     35 C         139.3196  148.0577  155.7326 C.ar    1  UNL1        0.0815
     36 N         140.1423  146.9591  155.1275 N.ar    1  UNL1       -0.2874
     37 O         143.0937  144.2178  161.2467 O.3     1  UNL1       -0.4701
     38 C         143.1458  143.0871  160.2624 C.3     1  UNL1        0.2525
@<TRIPOS>BOND
     1    16    17    1
     2    17    15    1
     3    15     7    1
     4     7     8    2
     5     7     9   am
     6     9    10    1
     7    10    11    1
     8    11    12    1
     9    12     1    1
    10     1     2   ar
    11     2     3   ar
    12     3     4   ar
    13     4    19    1
    14    19    21    1
    15    21    22   ar
    16    22    23   ar
    17    23    24   ar
    18    24    25    1
    19    24    26   ar
    20    26    28    1
    21    28    29   ar
    22    29    30   ar
    23    30    31   ar
    24    31    32   ar
    25    32    33   ar
    26    33    34   ar
    27    34    35   ar
    28    35    36   ar
    29    26    27   ar
    30     4     5   ar
    31     5    37    1
    32    37    38    1
    33     5     6   ar
    34    12    13    1
    35    13    14    1
    36    14     9    1
    37     6     1   ar
    38    27    21   ar
    39    36    28   ar
    40    36    31   ar
    41    17    18    1
    42    19    20    1
@<TRIPOS>MOLECULE
*****
 38 42 0 0 0
SMALL
GASTEIGER

@<TRIPOS>ATOM
      1 C         141.7444  138.8869  164.5794 C.ar    1  UNL1        0.0511
      2 C         143.1655  138.8572  164.1002 C.ar    1  UNL1        0.0160
      3 C         143.4744  138.4338  162.6946 C.ar    1  UNL1        0.0190
      4 C         142.3622  138.0402  161.7684 C.ar    1  UNL1        0.0850
      5 C         140.9411  138.0699  162.2476 C.ar    1  UNL1        0.1533
      6 C         140.6322  138.4933  163.6531 C.ar    1  UNL1        0.0527
      7 C         140.5094  140.5804  170.2014 C.2     1  UNL1        0.2419
      8 O         139.0906  140.8442  170.6107 O.2     1  UNL1       -0.2734
      9 N         140.8182  140.1570  168.7958 N.am    1  UNL1       -0.2749
     10 C         142.2369  139.8932  168.3866 C.3     1  UNL1        0.1149
     11 C         142.5457  139.4699  166.9810 C.3     1  UNL1        0.1123
     12 N         141.4356  139.3103  165.9848 N.pl3   1  UNL1       -0.3040
     13 C         140.0169  139.5741  166.3942 C.3     1  UNL1        0.1123
     14 C         139.7082  139.9974  167.7997 C.3     1  UNL1        0.1149
     15 C         141.6194  140.7400  171.1975 C.3     1  UNL1        0.1552
     16 C         142.4674  143.0727  170.4299 C.3     1  UNL1        0.0862
     17 N         142.1380  142.1077  171.5300 N.3     1  UNL1       -0.2886
     18 H         141.4321  142.5564  172.1137 H       1  UNL1        0.1237
     19 N         142.6710  137.6168  160.3629 N.pl3   1  UNL1       -0.2802
     20 H         142.9335  136.6867  160.1754 H       1  UNL1        0.1552
     21 C         142.5797  138.6107  159.2431 C.ar    1  UNL1        0.2208
     22 N         141.3115  138.7344  158.4517 N.ar    1  UNL1       -0.2111
     23 C         141.2202  139.7283  157.3318 C.ar    1  UNL1        0.1147
     24 C         142.3970  140.5984  157.0035 C.ar    1  UNL1        0.0960
     25 CL        142.3057  141.5923  155.8837 Cl      1  UNL1       -0.0790
     26 C         143.6653  140.4747  157.7950 C.ar    1  UNL1        0.1138
     27 N         143.7566  139.4808  158.9148 N.ar    1  UNL1       -0.2111
     28 C         144.8422  141.3448  157.4667 C.ar    1  UNL1        0.1031
     29 C         145.4516  142.3797  158.3656 C.ar    1  UNL1        0.1196
     30 N         146.6023  143.0073  157.6363 N.ar    1  UNL1       -0.2248
     31 C         146.7041  142.3605  156.2868 C.ar    1  UNL1        0.1479
     32 C         147.6468  142.5743  155.1398 C.ar    1  UNL1        0.0374
     33 C         147.5017  141.7606  153.8880 C.ar    1  UNL1        0.0046
     34 C         146.4139  140.7332  153.7832 C.ar    1  UNL1        0.0191
     35 C         145.4711  140.5193  154.9302 C.ar    1  UNL1        0.0815
     36 N         145.6162  141.3330  156.1820 N.ar    1  UNL1       -0.2874
     37 O         139.8289  137.6763  161.3214 O.3     1  UNL1       -0.4701
     38 C         138.4255  138.1266  161.6005 C.3     1  UNL1        0.2525
@<TRIPOS>BOND
     1    16    17    1
     2    17    15    1
     3    15     7    1
     4     7     8    2
     5     7     9   am
     6     9    10    1
     7    10    11    1
     8    11    12    1
     9    12     1    1
    10     1     2   ar
    11     2     3   ar
    12     3     4   ar
    13     4    19    1
    14    19    21    1
    15    21    22   ar
    16    22    23   ar
    17    23    24   ar
    18    24    25    1
    19    24    26   ar
    20    26    28    1
    21    28    29   ar
    22    29    30   ar
    23    30    31   ar
    24    31    32   ar
    25    32    33   ar
    26    33    34   ar
    27    34    35   ar
    28    35    36   ar
    29    26    27   ar
    30     4     5   ar
    31     5    37    1
    32    37    38    1
    33     5     6   ar
    34    12    13    1
    35    13    14    1
    36    14     9    1
    37     6     1   ar
    38    27    21   ar
    39    36    28   ar
    40    36    31   ar
    41    17    18    1
    42    19    20    1
@<TRIPOS>MOLECULE
*****
 38 42 0 0 0
SMALL
GASTEIGER

@<TRIPOS>ATOM
      1 C         141.1283  143.2131  164.5643 C.ar    1  UNL1        0.0511
      2 C         142.0694  144.3570  164.3274 C.ar    1  UNL1        0.0160
      3 C         141.8833  145.2464  163.1339 C.ar    1  UNL1        0.0190
      4 C         140.7563  144.9919  162.1773 C.ar    1  UNL1        0.0850
      5 C         139.8153  143.8480  162.4143 C.ar    1  UNL1        0.1533
      6 C         140.0013  142.9586  163.6077 C.ar    1  UNL1        0.0527
      7 C         141.8726  139.6559  169.3385 C.2     1  UNL1        0.2419
      8 O         142.9719  138.6355  169.3494 O.2     1  UNL1       -0.2734
      9 N         141.6864  140.5453  168.1449 N.am    1  UNL1       -0.2749
     10 C         140.5871  141.5656  168.1340 C.3     1  UNL1        0.1149
     11 C         140.4011  142.4549  166.9404 C.3     1  UNL1        0.1123
     12 N         141.3144  142.3238  165.7578 N.pl3   1  UNL1       -0.3040
     13 C         142.4138  141.3034  165.7688 C.3     1  UNL1        0.1123
     14 C         142.5998  140.4142  166.9623 C.3     1  UNL1        0.1149
     15 C         140.9592  139.7870  170.5211 C.3     1  UNL1        0.1552
     16 C         141.7777  142.0577  171.4825 C.3     1  UNL1        0.0862
     17 N         141.3657  140.6308  171.6928 N.3     1  UNL1       -0.2886
     18 H         140.5731  140.6447  172.3347 H       1  UNL1        0.1237
     19 N         140.5702  145.8812  160.9838 N.pl3   1  UNL1       -0.2802
     20 H         140.2794  146.8138  161.1054 H       1  UNL1        0.1552
     21 C         140.8272  145.3494  159.6050 C.ar    1  UNL1        0.2208
     22 N         142.2249  145.0065  159.1818 N.ar    1  UNL1       -0.2111
     23 C         142.4820  144.4747  157.8030 C.ar    1  UNL1        0.1147
     24 C         141.3414  144.2858  156.8473 C.ar    1  UNL1        0.0960
     25 CL        141.5984  143.7540  155.4685 Cl      1  UNL1       -0.0790
     26 C         139.9437  144.6286  157.2705 C.ar    1  UNL1        0.1138
     27 N         139.6866  145.1604  158.6493 N.ar    1  UNL1       -0.2111
     28 C         138.8031  144.4397  156.3148 C.ar    1  UNL1        0.1031
     29 C         138.3894  145.3959  155.2356 C.ar    1  UNL1        0.1196
     30 N         137.2066  144.8086  154.5243 N.ar    1  UNL1       -0.2248
     31 C         136.8892  143.4895  155.1639 C.ar    1  UNL1        0.1479
     32 C         135.8292  142.4664  154.8817 C.ar    1  UNL1        0.0374
     33 C         135.7558  141.2153  155.7061 C.ar    1  UNL1        0.0046
     34 C         136.7425  140.9873  156.8127 C.ar    1  UNL1        0.0191
     35 C         137.8026  142.0104  157.0949 C.ar    1  UNL1        0.0815
     36 N         137.8759  143.2615  156.2706 N.ar    1  UNL1       -0.2874
     37 O         138.6883  143.5935  161.4577 O.3     1  UNL1       -0.4701
     38 C         138.4320  142.2043  160.9531 C.3     1  UNL1        0.2525
@<TRIPOS>BOND
     1    16    17    1
     2    17    15    1
     3    15     7    1
     4     7     8    2
     5     7     9   am
     6     9    10    1
     7    10    11    1
     8    11    12    1
     9    12     1    1
    10     1     2   ar
    11     2     3   ar
    12     3     4   ar
    13     4    19    1
    14    19    21    1
    15    21    22   ar
    16    22    23   ar
    17    23    24   ar
    18    24    25    1
    19    24    26   ar
    20    26    28    1
    21    28    29   ar
    22    29    30   ar
    23    30    31   ar
    24    31    32   ar
    25    32    33   ar
    26    33    34   ar
    27    34    35   ar
    28    35    36   ar
    29    26    27   ar
    30     4     5   ar
    31     5    37    1
    32    37    38    1
    33     5     6   ar
    34    12    13    1
    35    13    14    1
    36    14     9    1
    37     6     1   ar
    38    27    21   ar
    39    36    28   ar
    40    36    31   ar
    41    17    18    1
    42    19    20    1
@<TRIPOS>MOLECULE
*****
 38 42 0 0 0
SMALL
GASTEIGER

@<TRIPOS>ATOM
      1 C         141.6533  138.9036  164.6321 C.ar    1  UNL1        0.0511
      2 C         143.0727  138.8563  164.1492 C.ar    1  UNL1        0.0160
      3 C         143.3738  138.4143  162.7477 C.ar    1  UNL1        0.0190
      4 C         142.2556  138.0198  161.8291 C.ar    1  UNL1        0.0850
      5 C         140.8362  138.0671  162.3121 C.ar    1  UNL1        0.1533
      6 C         140.5351  138.5090  163.7135 C.ar    1  UNL1        0.0527
      7 C         140.4494  140.6712  170.2380 C.2     1  UNL1        0.2419
      8 O         139.0395  140.9925  170.6366 O.2     1  UNL1       -0.2734
      9 N         140.7504  140.2292  168.8365 N.am    1  UNL1       -0.2749
     10 C         142.1603  139.9079  168.4379 C.3     1  UNL1        0.1149
     11 C         142.4612  139.4660  167.0364 C.3     1  UNL1        0.1123
     12 N         141.3523  139.3455  166.0335 N.pl3   1  UNL1       -0.3040
     13 C         139.9424  139.6668  166.4321 C.3     1  UNL1        0.1123
     14 C         139.6415  140.1087  167.8336 C.3     1  UNL1        0.1149
     15 C         141.5583  140.7917  171.2408 C.3     1  UNL1        0.1552
     16 C         142.4269  143.1078  170.4465 C.3     1  UNL1        0.0862
     17 N         142.1433  142.1369  171.5541 N.3     1  UNL1       -0.2886
     18 H         141.4947  142.5988  172.1916 H       1  UNL1        0.1237
     19 N         142.5566  137.5779  160.4277 N.pl3   1  UNL1       -0.2802
     20 H         142.7521  136.6312  160.2413 H       1  UNL1        0.1552
     21 C         142.5598  138.5785  159.3102 C.ar    1  UNL1        0.2208
     22 N         143.3114  138.2876  158.0451 N.ar    1  UNL1       -0.2111
     23 C         143.3146  139.2882  156.9276 C.ar    1  UNL1        0.1147
     24 C         142.5662  140.5797  157.0752 C.ar    1  UNL1        0.0960
     25 CL        142.5694  141.5803  155.9577 Cl      1  UNL1       -0.0790
     26 C         141.8145  140.8707  158.3403 C.ar    1  UNL1        0.1138
     27 N         141.8113  139.8700  159.4578 N.ar    1  UNL1       -0.2111
     28 C         141.0661  142.1622  158.4879 C.ar    1  UNL1        0.1031
     29 C         140.0445  142.7034  157.5320 C.ar    1  UNL1        0.1196
     30 N         139.5548  144.0149  158.0706 N.ar    1  UNL1       -0.2248
     31 C         140.2737  144.2843  159.3592 C.ar    1  UNL1        0.1479
     32 C         140.1985  145.4243  160.3312 C.ar    1  UNL1        0.0374
     33 C         141.0573  145.4192  161.5611 C.ar    1  UNL1        0.0046
     34 C         141.9913  144.2741  161.8190 C.ar    1  UNL1        0.0191
     35 C         142.0665  143.1341  160.8470 C.ar    1  UNL1        0.0815
     36 N         141.2077  143.1392  159.6172 N.ar    1  UNL1       -0.2874
     37 O         139.7179  137.6726  161.3935 O.3     1  UNL1       -0.4701
     38 C         138.3121  138.0988  161.6970 C.3     1  UNL1        0.2525
@<TRIPOS>BOND
     1    16    17    1
     2    17    15    1
     3    15     7    1
     4     7     8    2
     5     7     9   am
     6     9    10    1
     7    10    11    1
     8    11    12    1
     9    12     1    1
    10     1     2   ar
    11     2     3   ar
    12     3     4   ar
    13     4    19    1
    14    19    21    1
    15    21    22   ar
    16    22    23   ar
    17    23    24   ar
    18    24    25    1
    19    24    26   ar
    20    26    28    1
    21    28    29   ar
    22    29    30   ar
    23    30    31   ar
    24    31    32   ar
    25    32    33   ar
    26    33    34   ar
    27    34    35   ar
    28    35    36   ar
    29    26    27   ar
    30     4     5   ar
    31     5    37    1
    32    37    38    1
    33     5     6   ar
    34    12    13    1
    35    13    14    1
    36    14     9    1
    37     6     1   ar
    38    27    21   ar
    39    36    28   ar
    40    36    31   ar
    41    17    18    1
    42    19    20    1
@<TRIPOS>MOLECULE
*****
 38 42 0 0 0
SMALL
GASTEIGER

@<TRIPOS>ATOM
      1 C         139.1635  139.5815  164.5477 C.ar    1  UNL1        0.0511
      2 C         139.2581  138.2802  163.8076 C.ar    1  UNL1        0.0160
      3 C         138.7352  138.1751  162.4055 C.ar    1  UNL1        0.0190
      4 C         138.1177  139.3712  161.7437 C.ar    1  UNL1        0.0850
      5 C         138.0231  140.6724  162.4839 C.ar    1  UNL1        0.1533
      6 C         138.5460  140.7776  163.8859 C.ar    1  UNL1        0.0527
      7 C         141.2553  140.0018  170.1555 C.2     1  UNL1        0.2419
      8 O         140.3007  140.1511  171.3029 O.2     1  UNL1       -0.2734
      9 N         140.7324  139.8967  168.7535 N.am    1  UNL1       -0.2749
     10 C         141.6870  139.7473  167.6062 C.3     1  UNL1        0.1149
     11 C         141.1640  139.6423  166.2042 C.3     1  UNL1        0.1123
     12 N         139.6864  139.6866  165.9496 N.pl3   1  UNL1       -0.3040
     13 C         138.7318  139.8359  167.0970 C.3     1  UNL1        0.1123
     14 C         139.2548  139.9410  168.4989 C.3     1  UNL1        0.1149
     15 C         142.7329  139.9575  170.4101 C.3     1  UNL1        0.1552
     16 C         143.5763  142.2503  169.5262 C.3     1  UNL1        0.0862
     17 N         143.4956  141.2312  170.6239 N.3     1  UNL1       -0.2886
     18 H         143.0726  141.6965  171.4270 H       1  UNL1        0.1237
     19 N         137.5948  139.2661  160.3417 N.pl3   1  UNL1       -0.2802
     20 H         136.7140  138.8595  160.1740 H       1  UNL1        0.1552
     21 C         138.4140  139.7805  159.1953 C.ar    1  UNL1        0.2208
     22 N         139.7305  139.1407  158.8676 N.ar    1  UNL1       -0.2111
     23 C         140.5497  139.6551  157.7211 C.ar    1  UNL1        0.1147
     24 C         140.0524  140.8094  156.9024 C.ar    1  UNL1        0.0960
     25 CL        140.8715  141.3238  155.7560 Cl      1  UNL1       -0.0790
     26 C         138.7358  141.4492  157.2301 C.ar    1  UNL1        0.1138
     27 N         137.9166  140.9348  158.3766 N.ar    1  UNL1       -0.2111
     28 C         138.2384  142.6035  156.4114 C.ar    1  UNL1        0.1031
     29 C         137.0828  142.5733  155.4554 C.ar    1  UNL1        0.1196
     30 N         136.9395  143.9417  154.8580 N.ar    1  UNL1       -0.2248
     31 C         138.0064  144.8176  155.4448 C.ar    1  UNL1        0.1479
     32 C         138.3508  146.2615  155.2290 C.ar    1  UNL1        0.0374
     33 C         139.4979  146.8784  155.9733 C.ar    1  UNL1        0.0046
     34 C         140.3006  146.0513  156.9333 C.ar    1  UNL1        0.0191
     35 C         139.9563  144.6074  157.1491 C.ar    1  UNL1        0.0815
     36 N         138.8092  143.9905  156.4049 N.ar    1  UNL1       -0.2874
     37 O         137.4056  141.8685  161.8221 O.3     1  UNL1       -0.4701
     38 C         138.1705  143.1559  161.7352 C.3     1  UNL1        0.2525
@<TRIPOS>BOND
     1    16    17    1
     2    17    15    1
     3    15     7    1
     4     7     8    2
     5     7     9   am
     6     9    10    1
     7    10    11    1
     8    11    12    1
     9    12     1    1
    10     1     2   ar
    11     2     3   ar
    12     3     4   ar
    13     4    19    1
    14    19    21    1
    15    21    22   ar
    16    22    23   ar
    17    23    24   ar
    18    24    25    1
    19    24    26   ar
    20    26    28    1
    21    28    29   ar
    22    29    30   ar
    23    30    31   ar
    24    31    32   ar
    25    32    33   ar
    26    33    34   ar
    27    34    35   ar
    28    35    36   ar
    29    26    27   ar
    30     4     5   ar
    31     5    37    1
    32    37    38    1
    33     5     6   ar
    34    12    13    1
    35    13    14    1
    36    14     9    1
    37     6     1   ar
    38    27    21   ar
    39    36    28   ar
    40    36    31   ar
    41    17    18    1
    42    19    20    1
@<TRIPOS>MOLECULE
*****
 38 42 0 0 0
SMALL
GASTEIGER

@<TRIPOS>ATOM
      1 C         140.2527  138.9479  164.7312 C.ar    1  UNL1        0.0511
      2 C         138.8578  139.2495  164.2696 C.ar    1  UNL1        0.0160
      3 C         138.4390  138.9029  162.8715 C.ar    1  UNL1        0.0190
      4 C         139.4151  138.2546  161.9351 C.ar    1  UNL1        0.0850
      5 C         140.8101  137.9529  162.3968 C.ar    1  UNL1        0.1533
      6 C         141.2289  138.2995  163.7948 C.ar    1  UNL1        0.0527
      7 C         141.9275  140.3346  170.3234 C.2     1  UNL1        0.2419
      8 O         143.3754  140.2717  170.7100 O.2     1  UNL1       -0.2734
      9 N         141.5087  139.9879  168.9253 N.am    1  UNL1       -0.2749
     10 C         140.0609  140.0508  168.5387 C.3     1  UNL1        0.1149
     11 C         139.6422  139.7041  167.1405 C.3     1  UNL1        0.1123
     12 N         140.6715  139.2945  166.1292 N.pl3   1  UNL1       -0.3040
     13 C         142.1194  139.2316  166.5159 C.3     1  UNL1        0.1123
     14 C         142.5380  139.5783  167.9139 C.3     1  UNL1        0.1149
     15 C         140.8982  140.7442  171.3347 C.3     1  UNL1        0.1552
     16 C         139.9819  143.0420  170.5408 C.3     1  UNL1        0.0862
     17 N         140.6382  142.1986  171.5934 N.3     1  UNL1       -0.2886
     18 H         140.0461  142.2489  172.4225 H       1  UNL1        0.1237
     19 N         138.9964  137.9079  160.5371 N.pl3   1  UNL1       -0.2802
     20 H         138.5498  137.0495  160.3556 H       1  UNL1        0.1552
     21 C         139.2582  138.8691  159.4157 C.ar    1  UNL1        0.2208
     22 N         138.2060  139.8611  159.0172 N.ar    1  UNL1       -0.2111
     23 C         138.4677  140.8224  157.8958 C.ar    1  UNL1        0.1147
     24 C         139.7816  140.7917  157.1729 C.ar    1  UNL1        0.0960
     25 CL        140.0434  141.7529  156.0515 Cl      1  UNL1       -0.0790
     26 C         140.8339  139.7997  157.5715 C.ar    1  UNL1        0.1138
     27 N         140.5721  138.8384  158.6929 N.ar    1  UNL1       -0.2111
     28 C         142.1479  139.7689  156.8487 C.ar    1  UNL1        0.1031
     29 C         142.5309  138.8154  155.7558 C.ar    1  UNL1        0.1196
     30 N         143.9293  139.1435  155.3235 N.ar    1  UNL1       -0.2248
     31 C         144.4105  140.2996  156.1491 C.ar    1  UNL1        0.1479
     32 C         145.7090  141.0504  156.1643 C.ar    1  UNL1        0.0374
     33 C         145.9065  142.1878  157.1223 C.ar    1  UNL1        0.0046
     34 C         144.8055  142.5743  158.0649 C.ar    1  UNL1        0.0191
     35 C         143.5070  141.8235  158.0496 C.ar    1  UNL1        0.0815
     36 N         143.3095  140.6862  157.0917 N.ar    1  UNL1       -0.2874
     37 O         141.7862  137.3046  161.4605 O.3     1  UNL1       -0.4701
     38 C         143.0922  137.9763  161.1554 C.3     1  UNL1        0.2525
@<TRIPOS>BOND
     1    16    17    1
     2    17    15    1
     3    15     7    1
     4     7     8    2
     5     7     9   am
     6     9    10    1
     7    10    11    1
     8    11    12    1
     9    12     1    1
    10     1     2   ar
    11     2     3   ar
    12     3     4   ar
    13     4    19    1
    14    19    21    1
    15    21    22   ar
    16    22    23   ar
    17    23    24   ar
    18    24    25    1
    19    24    26   ar
    20    26    28    1
    21    28    29   ar
    22    29    30   ar
    23    30    31   ar
    24    31    32   ar
    25    32    33   ar
    26    33    34   ar
    27    34    35   ar
    28    35    36   ar
    29    26    27   ar
    30     4     5   ar
    31     5    37    1
    32    37    38    1
    33     5     6   ar
    34    12    13    1
    35    13    14    1
    36    14     9    1
    37     6     1   ar
    38    27    21   ar
    39    36    28   ar
    40    36    31   ar
    41    17    18    1
    42    19    20    1
@<TRIPOS>MOLECULE
*****
 38 42 0 0 0
SMALL
GASTEIGER

@<TRIPOS>ATOM
      1 C         141.9058  144.1093  159.8283 C.ar    1  UNL1        0.0511
      2 C         143.1060  143.2405  159.5943 C.ar    1  UNL1        0.0160
      3 C         143.9937  142.8625  160.7430 C.ar    1  UNL1        0.0190
      4 C         143.6811  143.3533  162.1255 C.ar    1  UNL1        0.0850
      5 C         142.4809  144.2221  162.3594 C.ar    1  UNL1        0.1533
      6 C         141.5932  144.6001  161.2108 C.ar    1  UNL1        0.0527
      7 C         138.3554  145.6208  155.2338 C.2     1  UNL1        0.2419
      8 O         138.4207  147.0048  154.6592 O.2     1  UNL1       -0.2734
      9 N         139.2430  145.2429  156.3825 N.am    1  UNL1       -0.2749
     10 C         139.1777  143.8589  156.9570 C.3     1  UNL1        0.1149
     11 C         140.0653  143.4810  158.1057 C.3     1  UNL1        0.1123
     12 N         141.0183  144.4872  158.6797 N.pl3   1  UNL1       -0.3040
     13 C         141.0836  145.8712  158.1051 C.3     1  UNL1        0.1123
     14 C         140.1960  146.2491  156.9565 C.3     1  UNL1        0.1149
     15 C         137.4025  144.6146  154.6597 C.3     1  UNL1        0.1552
     16 C         137.9517  142.6583  153.0408 C.3     1  UNL1        0.0862
     17 N         137.6050  144.1003  153.2653 N.3     1  UNL1       -0.2886
     18 H         136.7383  144.2772  152.7575 H       1  UNL1        0.1237
     19 N         144.5687  142.9754  163.2741 N.pl3   1  UNL1       -0.2802
     20 H         145.3146  143.5631  163.5339 H       1  UNL1        0.1552
     21 C         144.3197  141.7021  164.0269 C.ar    1  UNL1        0.2208
     22 N         145.2682  140.5488  163.8844 N.ar    1  UNL1       -0.2111
     23 C         145.0193  139.2755  164.6372 C.ar    1  UNL1        0.1147
     24 C         143.8218  139.1554  165.5325 C.ar    1  UNL1        0.0960
     25 CL        143.5728  137.8821  166.2852 Cl      1  UNL1       -0.0790
     26 C         142.8732  140.3087  165.6750 C.ar    1  UNL1        0.1138
     27 N         143.1222  141.5820  164.9222 N.ar    1  UNL1       -0.2111
     28 C         141.6757  140.1886  166.5703 C.ar    1  UNL1        0.1031
     29 C         140.2823  139.8408  166.1371 C.ar    1  UNL1        0.1196
     30 N         139.4068  139.8325  167.3550 N.ar    1  UNL1       -0.2248
     31 C         140.2590  140.1752  168.5408 C.ar    1  UNL1        0.1479
     32 C         139.9393  140.3153  169.9997 C.ar    1  UNL1        0.0374
     33 C         141.0220  140.6755  170.9735 C.ar    1  UNL1        0.0046
     34 C         142.4242  140.8956  170.4885 C.ar    1  UNL1        0.0191
     35 C         142.7439  140.7555  169.0297 C.ar    1  UNL1        0.0815
     36 N         141.6613  140.3953  168.0558 N.ar    1  UNL1       -0.2874
     37 O         142.1683  144.7129  163.7419 O.3     1  UNL1       -0.4701
     38 C         140.8662  144.3476  164.3909 C.3     1  UNL1        0.2525
@<TRIPOS>BOND
     1    16    17    1
     2    17    15    1
     3    15     7    1
     4     7     8    2
     5     7     9   am
     6     9    10    1
     7    10    11    1
     8    11    12    1
     9    12     1    1
    10     1     2   ar
    11     2     3   ar
    12     3     4   ar
    13     4    19    1
    14    19    21    1
    15    21    22   ar
    16    22    23   ar
    17    23    24   ar
    18    24    25    1
    19    24    26   ar
    20    26    28    1
    21    28    29   ar
    22    29    30   ar
    23    30    31   ar
    24    31    32   ar
    25    32    33   ar
    26    33    34   ar
    27    34    35   ar
    28    35    36   ar
    29    26    27   ar
    30     4     5   ar
    31     5    37    1
    32    37    38    1
    33     5     6   ar
    34    12    13    1
    35    13    14    1
    36    14     9    1
    37     6     1   ar
    38    27    21   ar
    39    36    28   ar
    40    36    31   ar
    41    17    18    1
    42    19    20    1
@<TRIPOS>MOLECULE
*****
 38 42 0 0 0
SMALL
GASTEIGER

@<TRIPOS>ATOM
      1 C         142.4892  140.3034  157.9225 C.ar    1  UNL1        0.0511
      2 C         141.2892  141.1868  157.7507 C.ar    1  UNL1        0.0160
      3 C         141.2292  142.5142  158.4470 C.ar    1  UNL1        0.0190
      4 C         142.3691  142.9580  159.3151 C.ar    1  UNL1        0.0850
      5 C         143.5691  142.0744  159.4869 C.ar    1  UNL1        0.1533
      6 C         143.6292  140.7472  158.7906 C.ar    1  UNL1        0.0527
      7 C         142.7292  134.9943  155.1375 C.2     1  UNL1        0.2419
      8 O         142.5901  134.9230  153.6457 O.2     1  UNL1       -0.2734
      9 N         142.6692  136.3216  155.8338 N.am    1  UNL1       -0.2749
     10 C         142.8083  136.3929  157.3256 C.3     1  UNL1        0.1149
     11 C         142.7483  137.7202  158.0219 C.3     1  UNL1        0.1123
     12 N         142.5492  138.9762  157.2263 N.pl3   1  UNL1       -0.3040
     13 C         142.4101  138.9048  155.7344 C.3     1  UNL1        0.1123
     14 C         142.4701  137.5776  155.0382 C.3     1  UNL1        0.1149
     15 C         142.9283  133.7384  155.9331 C.3     1  UNL1        0.1552
     16 C         144.6038  133.1078  157.8159 C.3     1  UNL1        0.0862
     17 N         144.3072  133.3336  156.3630 N.3     1  UNL1       -0.2886
     18 H         144.5221  132.4615  155.8796 H       1  UNL1        0.1237
     19 N         142.3091  144.2852  160.0114 N.pl3   1  UNL1       -0.2802
     20 H         142.8164  145.0506  159.6565 H       1  UNL1        0.1552
     21 C         141.4761  144.4461  161.2484 C.ar    1  UNL1        0.2208
     22 N         140.4375  145.5261  161.3180 N.ar    1  UNL1       -0.2111
     23 C         139.6044  145.6871  162.5550 C.ar    1  UNL1        0.1147
     24 C         139.8100  144.7680  163.7225 C.ar    1  UNL1        0.0960
     25 CL        138.9770  144.9289  164.9595 Cl      1  UNL1       -0.0790
     26 C         140.8487  143.6879  163.6529 C.ar    1  UNL1        0.1138
     27 N         141.6817  143.5270  162.4159 N.ar    1  UNL1       -0.2111
     28 C         141.0544  142.7689  164.8204 C.ar    1  UNL1        0.1031
     29 C         142.2131  142.7987  165.7726 C.ar    1  UNL1        0.1196
     30 N         142.0123  141.7069  166.7814 N.ar    1  UNL1       -0.2248
     31 C         140.7295  141.0024  166.4527 C.ar    1  UNL1        0.1479
     32 C         140.0240  139.8479  167.1004 C.ar    1  UNL1        0.0374
     33 C         138.7264  139.3498  166.5361 C.ar    1  UNL1        0.0046
     34 C         138.1344  140.0062  165.3242 C.ar    1  UNL1        0.0191
     35 C         138.8400  141.1606  164.6765 C.ar    1  UNL1        0.0815
     36 N         140.1375  141.6587  165.2407 N.ar    1  UNL1       -0.2874
     37 O         144.7090  142.5182  160.3549 O.3     1  UNL1       -0.4701
     38 C         144.8621  141.9562  161.7372 C.3     1  UNL1        0.2525
@<TRIPOS>BOND
     1    16    17    1
     2    17    15    1
     3    15     7    1
     4     7     8    2
     5     7     9   am
     6     9    10    1
     7    10    11    1
     8    11    12    1
     9    12     1    1
    10     1     2   ar
    11     2     3   ar
    12     3     4   ar
    13     4    19    1
    14    19    21    1
    15    21    22   ar
    16    22    23   ar
    17    23    24   ar
    18    24    25    1
    19    24    26   ar
    20    26    28    1
    21    28    29   ar
    22    29    30   ar
    23    30    31   ar
    24    31    32   ar
    25    32    33   ar
    26    33    34   ar
    27    34    35   ar
    28    35    36   ar
    29    26    27   ar
    30     4     5   ar
    31     5    37    1
    32    37    38    1
    33     5     6   ar
    34    12    13    1
    35    13    14    1
    36    14     9    1
    37     6     1   ar
    38    27    21   ar
    39    36    28   ar
    40    36    31   ar
    41    17    18    1
    42    19    20    1
