@<TRIPOS>MOLECULE
*****
 27 31 0 0 0
SMALL
GASTEIGER

@<TRIPOS>ATOM
      1 N         145.1186  139.4529  164.1151 N.pl3   1  UNL1       -0.3133
      2 C         143.8184  138.9814  163.5346 C.2     1  UNL1        0.2770
      3 N         142.4755  139.0627  164.1980 N.2     1  UNL1       -0.2180
      4 C         141.4599  138.4774  163.2620 C.3     1  UNL1        0.1764
      5 C         142.1751  138.0342  162.0203 C.3     1  UNL1        0.2373
      6 O         143.6327  138.3457  162.1887 O.2     1  UNL1       -0.4477
      7 C         140.8845  138.9674  164.5577 C.ar    1  UNL1        0.0377
      8 C         141.7815  139.5784  165.5932 C.ar    1  UNL1        0.0008
      9 C         141.2062  140.0684  166.8889 C.ar    1  UNL1        0.0029
     10 C         139.7339  139.9474  167.1491 C.ar    1  UNL1        0.0032
     11 C         138.8369  139.3364  166.1137 C.ar    1  UNL1        0.0366
     12 C         139.4122  138.8464  164.8180 C.ar    1  UNL1        0.1366
     13 O         138.5153  138.2354  163.7825 O.3     1  UNL1       -0.4731
     14 C         139.0907  137.7454  162.4868 C.3     1  UNL1        0.2345
     15 C         140.5630  137.8664  162.2266 C.3     1  UNL1        0.1587
     16 C         140.4574  137.8256  162.1739 C.3     1  UNL1        0.0359
     17 C         140.8581  137.9450  162.2953 C.3     1  UNL1        0.0347
     18 C         140.2895  137.7693  162.1092 C.3     1  UNL1        0.1423
     19 O         140.6825  137.8952  162.2476 O.3     1  UNL1       -0.3526
     20 H         145.1388  139.8595  165.0115 H       1  UNL1        0.1466
     21 H         145.9518  139.3557  163.5998 H       1  UNL1        0.1466
     22 C         142.1030  140.6794  167.9244 C.ar    1  UNL1        0.0384
     23 C         142.6886  142.0419  167.6997 C.ar    1  UNL1        0.1022
     24 N         143.5854  142.6530  168.7351 N.ar    1  UNL1       -0.2224
     25 C         143.8969  141.9015  169.9953 C.ar    1  UNL1        0.1989
     26 N         143.3114  140.5389  170.2201 N.ar    1  UNL1       -0.2224
     27 C         142.4144  139.9278  169.1846 C.ar    1  UNL1        0.1022
@<TRIPOS>BOND
     1     1     2    1
     2     2     3    2
     3     3     4    1
     4     4     5    1
     5     5     6    1
     6     4     7    1
     7     7     8   ar
     8     8     9   ar
     9     9    22    1
    10    22    23   ar
    11    23    24   ar
    12    24    25   ar
    13    25    26   ar
    14    26    27   ar
    15     9    10   ar
    16    10    11   ar
    17    11    12   ar
    18    12    13    1
    19    13    14    1
    20    14    15    1
    21    15    16    1
    22    16    17    1
    23    17    18    1
    24    18    19    1
    25     6     2    1
    26    12     7   ar
    27    19    15    1
    28    15     4    1
    29    27    22   ar
    30     1    20    1
    31     1    21    1
@<TRIPOS>MOLECULE
*****
 27 31 0 0 0
SMALL
GASTEIGER

@<TRIPOS>ATOM
      1 N         138.8261  145.1460  165.4438 N.pl3   1  UNL1       -0.3133
      2 C         138.5173  144.0986  164.4155 C.2     1  UNL1        0.2770
      3 N         138.6425  142.6156  164.6025 N.2     1  UNL1       -0.2180
      4 C         138.2316  141.9507  163.3222 C.3     1  UNL1        0.1764
      5 C         137.8524  143.0228  162.3441 C.3     1  UNL1        0.2373
      6 O         138.0290  144.3503  163.0198 O.2     1  UNL1       -0.4477
      7 C         138.6409  140.9939  164.4025 C.ar    1  UNL1        0.0377
      8 C         139.0773  141.5148  165.7398 C.ar    1  UNL1        0.0008
      9 C         139.4866  140.5580  166.8201 C.ar    1  UNL1        0.0029
     10 C         139.4596  139.0805  166.5631 C.ar    1  UNL1        0.0032
     11 C         139.0232  138.5596  165.2258 C.ar    1  UNL1        0.0366
     12 C         138.6139  139.5163  164.1455 C.ar    1  UNL1        0.1366
     13 O         138.1775  138.9955  162.8082 O.3     1  UNL1       -0.4731
     14 C         137.7682  139.9523  161.7279 C.3     1  UNL1        0.2345
     15 C         137.7952  141.4299  161.9849 C.3     1  UNL1        0.1587
     16 C         137.7682  141.3465  161.8959 C.3     1  UNL1        0.0359
     17 C         137.8431  141.6876  162.1559 C.3     1  UNL1        0.0347
     18 C         137.7319  141.2080  161.7733 C.3     1  UNL1        0.1423
     19 O         137.8122  141.5364  162.0474 O.3     1  UNL1       -0.3526
     20 H         139.1430  144.8804  166.3373 H       1  UNL1        0.1466
     21 H         138.7120  146.0992  165.2253 H       1  UNL1        0.1466
     22 C         139.9230  141.0788  168.1574 C.ar    1  UNL1        0.0384
     23 C         139.5211  140.3586  169.4102 C.ar    1  UNL1        0.1022
     24 N         139.9574  140.8793  170.7475 N.ar    1  UNL1       -0.2224
     25 C         140.7957  142.1203  170.8320 C.ar    1  UNL1        0.1989
     26 N         141.1976  142.8406  169.5792 N.ar    1  UNL1       -0.2224
     27 C         140.7612  142.3199  168.2418 C.ar    1  UNL1        0.1022
@<TRIPOS>BOND
     1     1     2    1
     2     2     3    2
     3     3     4    1
     4     4     5    1
     5     5     6    1
     6     4     7    1
     7     7     8   ar
     8     8     9   ar
     9     9    22    1
    10    22    23   ar
    11    23    24   ar
    12    24    25   ar
    13    25    26   ar
    14    26    27   ar
    15     9    10   ar
    16    10    11   ar
    17    11    12   ar
    18    12    13    1
    19    13    14    1
    20    14    15    1
    21    15    16    1
    22    16    17    1
    23    17    18    1
    24    18    19    1
    25     6     2    1
    26    12     7   ar
    27    19    15    1
    28    15     4    1
    29    27    22   ar
    30     1    20    1
    31     1    21    1
@<TRIPOS>MOLECULE
*****
 27 31 0 0 0
SMALL
GASTEIGER

@<TRIPOS>ATOM
      1 N         137.5304  144.1331  164.9780 N.pl3   1  UNL1       -0.3133
      2 C         138.8599  144.3813  164.3294 C.2     1  UNL1        0.2770
      3 N         140.1804  143.8389  164.7896 N.2     1  UNL1       -0.2180
      4 C         141.2389  144.3379  163.8512 C.3     1  UNL1        0.1764
      5 C         140.5725  145.1887  162.8110 C.3     1  UNL1        0.2373
      6 O         139.1022  145.2155  163.1065 O.2     1  UNL1       -0.4477
      7 C         141.7628  143.4659  164.9535 C.ar    1  UNL1        0.0377
      8 C         140.8192  142.8931  165.9692 C.ar    1  UNL1        0.0008
      9 C         141.3430  142.0210  167.0716 C.ar    1  UNL1        0.0029
     10 C         142.8103  141.7218  167.1582 C.ar    1  UNL1        0.0032
     11 C         143.7538  142.2945  166.1425 C.ar    1  UNL1        0.0366
     12 C         143.2301  143.1666  165.0401 C.ar    1  UNL1        0.1366
     13 O         144.1735  143.7394  164.0244 O.3     1  UNL1       -0.4731
     14 C         143.6497  144.6115  162.9220 C.3     1  UNL1        0.2345
     15 C         142.1824  144.9107  162.8355 C.3     1  UNL1        0.1587
     16 C         142.2906  144.9344  162.7779 C.3     1  UNL1        0.0359
     17 C         141.8833  144.8943  162.9263 C.3     1  UNL1        0.0347
     18 C         142.4619  144.9599  162.7033 C.3     1  UNL1        0.1423
     19 O         142.0615  144.9084  162.8662 O.3     1  UNL1       -0.3526
     20 H         137.4728  143.5681  165.7822 H       1  UNL1        0.1466
     21 H         136.7153  144.5352  164.5996 H       1  UNL1        0.1466
     22 C         140.3995  141.4482  168.0873 C.ar    1  UNL1        0.0384
     23 C         139.6664  140.1727  167.7946 C.ar    1  UNL1        0.1022
     24 N         138.7229  139.5998  168.8102 N.ar    1  UNL1       -0.2224
     25 C         138.5125  140.3024  170.1188 C.ar    1  UNL1        0.1989
     26 N         139.2457  141.5778  170.4115 N.ar    1  UNL1       -0.2224
     27 C         140.1892  142.1508  169.3958 C.ar    1  UNL1        0.1022
@<TRIPOS>BOND
     1     1     2    1
     2     2     3    2
     3     3     4    1
     4     4     5    1
     5     5     6    1
     6     4     7    1
     7     7     8   ar
     8     8     9   ar
     9     9    22    1
    10    22    23   ar
    11    23    24   ar
    12    24    25   ar
    13    25    26   ar
    14    26    27   ar
    15     9    10   ar
    16    10    11   ar
    17    11    12   ar
    18    12    13    1
    19    13    14    1
    20    14    15    1
    21    15    16    1
    22    16    17    1
    23    17    18    1
    24    18    19    1
    25     6     2    1
    26    12     7   ar
    27    19    15    1
    28    15     4    1
    29    27    22   ar
    30     1    20    1
    31     1    21    1
@<TRIPOS>MOLECULE
*****
 27 31 0 0 0
SMALL
GASTEIGER

@<TRIPOS>ATOM
      1 N         139.2279  137.2636  164.6076 N.pl3   1  UNL1       -0.3133
      2 C         138.7994  138.5178  163.9054 C.2     1  UNL1        0.2770
      3 N         139.0297  139.9200  164.3860 N.2     1  UNL1       -0.2180
      4 C         138.4380  140.8589  163.3769 C.3     1  UNL1        0.1764
      5 C         137.8419  140.0370  162.2727 C.3     1  UNL1        0.2373
      6 O         138.0653  138.5902  162.5993 O.2     1  UNL1       -0.4477
      7 C         139.0755  141.5452  164.5484 C.ar    1  UNL1        0.0377
      8 C         139.7095  140.7335  165.6391 C.ar    1  UNL1        0.0008
      9 C         140.3471  141.4198  166.8106 C.ar    1  UNL1        0.0029
     10 C         140.3507  142.9176  166.8915 C.ar    1  UNL1        0.0032
     11 C         139.7168  143.7292  165.8009 C.ar    1  UNL1        0.0366
     12 C         139.0792  143.0430  164.6293 C.ar    1  UNL1        0.1366
     13 O         138.4453  143.8545  163.5387 O.3     1  UNL1       -0.4731
     14 C         137.8077  143.1682  162.3671 C.3     1  UNL1        0.2345
     15 C         137.8040  141.6704  162.2862 C.3     1  UNL1        0.1587
     16 C         137.7663  141.7719  162.2240 C.3     1  UNL1        0.0359
     17 C         137.8677  141.3804  162.3854 C.3     1  UNL1        0.0347
     18 C         137.7164  141.9347  162.1431 C.3     1  UNL1        0.1423
     19 O         137.8262  141.5524  162.3199 O.3     1  UNL1       -0.3526
     20 H         139.7074  137.3191  165.4657 H       1  UNL1        0.1466
     21 H         139.0298  136.3848  164.2104 H       1  UNL1        0.1466
     22 C         140.9810  140.6083  167.9013 C.ar    1  UNL1        0.0384
     23 C         140.2242  140.3311  169.1664 C.ar    1  UNL1        0.1022
     24 N         140.8581  139.5196  170.2571 N.ar    1  UNL1       -0.2224
     25 C         142.2488  138.9852  170.0827 C.ar    1  UNL1        0.1989
     26 N         143.0056  139.2623  168.8176 N.ar    1  UNL1       -0.2224
     27 C         142.3717  140.0739  167.7268 C.ar    1  UNL1        0.1022
@<TRIPOS>BOND
     1     1     2    1
     2     2     3    2
     3     3     4    1
     4     4     5    1
     5     5     6    1
     6     4     7    1
     7     7     8   ar
     8     8     9   ar
     9     9    22    1
    10    22    23   ar
    11    23    24   ar
    12    24    25   ar
    13    25    26   ar
    14    26    27   ar
    15     9    10   ar
    16    10    11   ar
    17    11    12   ar
    18    12    13    1
    19    13    14    1
    20    14    15    1
    21    15    16    1
    22    16    17    1
    23    17    18    1
    24    18    19    1
    25     6     2    1
    26    12     7   ar
    27    19    15    1
    28    15     4    1
    29    27    22   ar
    30     1    20    1
    31     1    21    1
@<TRIPOS>MOLECULE
*****
 27 31 0 0 0
SMALL
GASTEIGER

@<TRIPOS>ATOM
      1 N         143.2107  142.2176  166.4526 N.pl3   1  UNL1       -0.3133
      2 C         142.1484  141.8752  167.4548 C.2     1  UNL1        0.2770
      3 N         141.0225  140.9056  167.2497 N.2     1  UNL1       -0.2180
      4 C         140.2038  140.8734  168.5063 C.3     1  UNL1        0.1764
      5 C         140.8239  141.8231  169.4878 C.3     1  UNL1        0.2373
      6 O         142.0257  142.4422  168.8380 O.2     1  UNL1       -0.4477
      7 C         139.6982  139.9647  167.4253 C.ar    1  UNL1        0.0377
      8 C         140.4164  139.8913  166.1104 C.ar    1  UNL1        0.0008
      9 C         139.9108  138.9825  165.0294 C.ar    1  UNL1        0.0029
     10 C         138.6870  138.1473  165.2633 C.ar    1  UNL1        0.0032
     11 C         137.9688  138.2208  166.5781 C.ar    1  UNL1        0.0366
     12 C         138.4744  139.1295  167.6591 C.ar    1  UNL1        0.1366
     13 O         137.7562  139.2030  168.9740 O.3     1  UNL1       -0.4731
     14 C         138.2619  140.1117  170.0550 C.3     1  UNL1        0.2345
     15 C         139.4857  140.9469  169.8211 C.3     1  UNL1        0.1587
     16 C         139.3995  140.9218  169.9079 C.3     1  UNL1        0.0359
     17 C         139.7282  141.0554  169.6556 C.3     1  UNL1        0.0347
     18 C         139.2621  140.8725  170.0272 C.3     1  UNL1        0.1423
     19 O         139.5841  140.9942  169.7607 O.3     1  UNL1       -0.3526
     20 H         143.2068  141.7901  165.5657 H       1  UNL1        0.1466
     21 H         143.9117  142.8698  166.6816 H       1  UNL1        0.1466
     22 C         140.6289  138.9090  163.7146 C.ar    1  UNL1        0.0384
     23 C         141.3247  140.1217  163.1712 C.ar    1  UNL1        0.1022
     24 N         142.0428  140.0483  161.8564 N.ar    1  UNL1       -0.2224
     25 C         142.0653  138.7621  161.0848 C.ar    1  UNL1        0.1989
     26 N         141.3695  137.5494  161.6282 N.ar    1  UNL1       -0.2224
     27 C         140.6513  137.6228  162.9431 C.ar    1  UNL1        0.1022
@<TRIPOS>BOND
     1     1     2    1
     2     2     3    2
     3     3     4    1
     4     4     5    1
     5     5     6    1
     6     4     7    1
     7     7     8   ar
     8     8     9   ar
     9     9    22    1
    10    22    23   ar
    11    23    24   ar
    12    24    25   ar
    13    25    26   ar
    14    26    27   ar
    15     9    10   ar
    16    10    11   ar
    17    11    12   ar
    18    12    13    1
    19    13    14    1
    20    14    15    1
    21    15    16    1
    22    16    17    1
    23    17    18    1
    24    18    19    1
    25     6     2    1
    26    12     7   ar
    27    19    15    1
    28    15     4    1
    29    27    22   ar
    30     1    20    1
    31     1    21    1
@<TRIPOS>MOLECULE
*****
 27 31 0 0 0
SMALL
GASTEIGER

@<TRIPOS>ATOM
      1 N         137.4370  143.3332  163.5941 N.pl3   1  UNL1       -0.3133
      2 C         138.8186  143.9174  163.5984 C.2     1  UNL1        0.2770
      3 N         140.0310  143.3092  164.2388 N.2     1  UNL1       -0.2180
      4 C         141.1920  144.2283  163.9993 C.3     1  UNL1        0.1764
      5 C         140.6971  145.4045  163.2108 C.3     1  UNL1        0.2373
      6 O         139.2302  145.2123  162.9631 O.2     1  UNL1       -0.4477
      7 C         141.5398  142.9975  164.7830 C.ar    1  UNL1        0.0377
      8 C         140.4789  141.9855  165.0997 C.ar    1  UNL1        0.0008
      9 C         140.8267  140.7547  165.8834 C.ar    1  UNL1        0.0029
     10 C         142.2353  140.5360  166.3504 C.ar    1  UNL1        0.0032
     11 C         143.2961  141.5480  166.0336 C.ar    1  UNL1        0.0366
     12 C         142.9484  142.7788  165.2499 C.ar    1  UNL1        0.1366
     13 O         144.0092  143.7910  164.9331 O.3     1  UNL1       -0.4731
     14 C         143.6614  145.0217  164.1494 C.3     1  UNL1        0.2345
     15 C         142.2528  145.2404  163.6825 C.3     1  UNL1        0.1587
     16 C         142.3660  145.2931  163.6801 C.3     1  UNL1        0.0359
     17 C         141.9500  145.1683  163.6498 C.3     1  UNL1        0.0347
     18 C         142.5426  145.3587  163.6858 C.3     1  UNL1        0.1423
     19 O         142.1313  145.2177  163.6658 O.3     1  UNL1       -0.3526
     20 H         137.2649  142.4730  164.0408 H       1  UNL1        0.1466
     21 H         136.7024  143.8101  163.1445 H       1  UNL1        0.1466
     22 C         139.7659  139.7426  166.2002 C.ar    1  UNL1        0.0384
     23 C         139.0188  139.8205  167.4985 C.ar    1  UNL1        0.1022
     24 N         137.9580  138.8084  167.8154 N.ar    1  UNL1       -0.2224
     25 C         137.6443  137.7183  166.8339 C.ar    1  UNL1        0.1989
     26 N         138.3915  137.6404  165.5355 N.ar    1  UNL1       -0.2224
     27 C         139.4523  138.6525  165.2186 C.ar    1  UNL1        0.1022
@<TRIPOS>BOND
     1     1     2    1
     2     2     3    2
     3     3     4    1
     4     4     5    1
     5     5     6    1
     6     4     7    1
     7     7     8   ar
     8     8     9   ar
     9     9    22    1
    10    22    23   ar
    11    23    24   ar
    12    24    25   ar
    13    25    26   ar
    14    26    27   ar
    15     9    10   ar
    16    10    11   ar
    17    11    12   ar
    18    12    13    1
    19    13    14    1
    20    14    15    1
    21    15    16    1
    22    16    17    1
    23    17    18    1
    24    18    19    1
    25     6     2    1
    26    12     7   ar
    27    19    15    1
    28    15     4    1
    29    27    22   ar
    30     1    20    1
    31     1    21    1
@<TRIPOS>MOLECULE
*****
 27 31 0 0 0
SMALL
GASTEIGER

@<TRIPOS>ATOM
      1 N         140.6701  137.3199  164.6408 N.pl3   1  UNL1       -0.3133
      2 C         141.7939  138.1401  164.0802 C.2     1  UNL1        0.2770
      3 N         142.3376  139.4089  164.6671 N.2     1  UNL1       -0.2180
      4 C         143.4511  139.8884  163.7837 C.3     1  UNL1        0.1764
      5 C         143.5956  138.9159  162.6510 C.3     1  UNL1        0.2373
      6 O         142.5714  137.8354  162.8341 O.2     1  UNL1       -0.4477
      7 C         143.1899  140.7699  164.9690 C.ar    1  UNL1        0.0377
      8 C         142.1043  140.4161  165.9419 C.ar    1  UNL1        0.0008
      9 C         141.8431  141.2976  167.1272 C.ar    1  UNL1        0.0029
     10 C         142.6674  142.5328  167.3394 C.ar    1  UNL1        0.0032
     11 C         143.7528  142.8865  166.3665 C.ar    1  UNL1        0.0366
     12 C         144.0141  142.0050  165.1812 C.ar    1  UNL1        0.1366
     13 O         145.0996  142.3587  164.2082 O.3     1  UNL1       -0.4731
     14 C         145.3608  141.4772  163.0230 C.3     1  UNL1        0.2345
     15 C         144.5365  140.2420  162.8107 C.3     1  UNL1        0.1587
     16 C         144.6305  140.3068  162.7602 C.3     1  UNL1        0.0359
     17 C         144.3123  140.0349  162.8798 C.3     1  UNL1        0.0347
     18 C         144.7706  140.4162  162.6972 C.3     1  UNL1        0.1423
     19 O         144.4490  140.1559  162.8324 O.3     1  UNL1       -0.3526
     20 H         140.2191  137.6036  165.4687 H       1  UNL1        0.1466
     21 H         140.3835  136.4980  164.1809 H       1  UNL1        0.1466
     22 C         140.7577  140.9440  168.1001 C.ar    1  UNL1        0.0384
     23 C         140.6841  141.6396  169.4270 C.ar    1  UNL1        0.1022
     24 N         139.5987  141.2861  170.4001 N.ar    1  UNL1       -0.2224
     25 C         138.5868  140.2368  170.0462 C.ar    1  UNL1        0.1989
     26 N         138.6604  139.5411  168.7194 N.ar    1  UNL1       -0.2224
     27 C         139.7459  139.8947  167.7462 C.ar    1  UNL1        0.1022
@<TRIPOS>BOND
     1     1     2    1
     2     2     3    2
     3     3     4    1
     4     4     5    1
     5     5     6    1
     6     4     7    1
     7     7     8   ar
     8     8     9   ar
     9     9    22    1
    10    22    23   ar
    11    23    24   ar
    12    24    25   ar
    13    25    26   ar
    14    26    27   ar
    15     9    10   ar
    16    10    11   ar
    17    11    12   ar
    18    12    13    1
    19    13    14    1
    20    14    15    1
    21    15    16    1
    22    16    17    1
    23    17    18    1
    24    18    19    1
    25     6     2    1
    26    12     7   ar
    27    19    15    1
    28    15     4    1
    29    27    22   ar
    30     1    20    1
    31     1    21    1
@<TRIPOS>MOLECULE
*****
 27 31 0 0 0
SMALL
GASTEIGER

@<TRIPOS>ATOM
      1 N         138.0536  139.7283  169.6586 N.pl3   1  UNL1       -0.3133
      2 C         138.2560  139.1909  168.2728 C.2     1  UNL1        0.2770
      3 N         139.3893  139.5325  167.3515 N.2     1  UNL1       -0.2180
      4 C         139.1943  138.7703  166.0744 C.3     1  UNL1        0.1764
      5 C         137.9405  137.9577  166.2065 C.3     1  UNL1        0.2373
      6 O         137.3606  138.2176  167.5652 O.2     1  UNL1       -0.4477
      7 C         140.4201  139.6347  166.0878 C.ar    1  UNL1        0.0377
      8 C         140.7452  140.4562  167.3001 C.ar    1  UNL1        0.0008
      9 C         141.9710  141.3206  167.3136 C.ar    1  UNL1        0.0029
     10 C         142.8717  141.3636  166.1149 C.ar    1  UNL1        0.0032
     11 C         142.5466  140.5421  164.9027 C.ar    1  UNL1        0.0366
     12 C         141.3208  139.6777  164.8891 C.ar    1  UNL1        0.1366
     13 O         140.9957  138.8562  163.6769 O.3     1  UNL1       -0.4731
     14 C         139.7698  137.9918  163.6634 C.3     1  UNL1        0.2345
     15 C         138.8692  137.9488  164.8622 C.3     1  UNL1        0.1587
     16 C         138.8816  137.9013  164.7474 C.3     1  UNL1        0.0359
     17 C         138.7771  138.0260  165.1512 C.3     1  UNL1        0.0347
     18 C         138.9153  137.8392  164.5726 C.3     1  UNL1        0.1423
     19 O         138.8269  137.9753  164.9765 O.3     1  UNL1       -0.3526
     20 H         138.6999  140.3666  170.0383 H       1  UNL1        0.1466
     21 H         137.2746  139.4427  170.1884 H       1  UNL1        0.1466
     22 C         142.2962  142.1421  168.5258 C.ar    1  UNL1        0.0384
     23 C         143.7195  142.2803  168.9784 C.ar    1  UNL1        0.1022
     24 N         144.0448  143.1018  170.1905 N.ar    1  UNL1       -0.2224
     25 C         142.9466  143.7851  170.9503 C.ar    1  UNL1        0.1989
     26 N         141.5232  143.6468  170.4977 N.ar    1  UNL1       -0.2224
     27 C         141.1979  142.8253  169.2855 C.ar    1  UNL1        0.1022
@<TRIPOS>BOND
     1     1     2    1
     2     2     3    2
     3     3     4    1
     4     4     5    1
     5     5     6    1
     6     4     7    1
     7     7     8   ar
     8     8     9   ar
     9     9    22    1
    10    22    23   ar
    11    23    24   ar
    12    24    25   ar
    13    25    26   ar
    14    26    27   ar
    15     9    10   ar
    16    10    11   ar
    17    11    12   ar
    18    12    13    1
    19    13    14    1
    20    14    15    1
    21    15    16    1
    22    16    17    1
    23    17    18    1
    24    18    19    1
    25     6     2    1
    26    12     7   ar
    27    19    15    1
    28    15     4    1
    29    27    22   ar
    30     1    20    1
    31     1    21    1
@<TRIPOS>MOLECULE
*****
 27 31 0 0 0
SMALL
GASTEIGER

@<TRIPOS>ATOM
      1 N         139.3747  139.6636  163.1270 N.pl3   1  UNL1       -0.3133
      2 C         139.3451  139.7350  164.6250 C.2     1  UNL1        0.2770
      3 N         140.3500  140.4307  165.4945 N.2     1  UNL1       -0.2180
      4 C         139.9314  140.2489  166.9234 C.3     1  UNL1        0.1764
      5 C         138.6677  139.4409  166.9369 C.3     1  UNL1        0.2373
      6 O         138.3054  139.1233  165.5165 O.2     1  UNL1       -0.4477
      7 C         141.1912  141.0451  166.7534 C.ar    1  UNL1        0.0377
      8 C         141.7322  141.3085  165.3793 C.ar    1  UNL1        0.0008
      9 C         142.9921  142.1046  165.2093 C.ar    1  UNL1        0.0029
     10 C         143.7109  142.6373  166.4132 C.ar    1  UNL1        0.0032
     11 C         143.1699  142.3739  167.7872 C.ar    1  UNL1        0.0366
     12 C         141.9100  141.5778  167.9573 C.ar    1  UNL1        0.1366
     13 O         141.3690  141.3144  169.3313 O.3     1  UNL1       -0.4731
     14 C         140.1091  140.5182  169.5014 C.3     1  UNL1        0.2345
     15 C         139.3903  139.9855  168.2974 C.3     1  UNL1        0.1587
     16 C         139.3834  139.9886  168.4220 C.3     1  UNL1        0.0359
     17 C         139.3453  139.9382  167.9913 C.3     1  UNL1        0.0347
     18 C         139.3880  140.0029  168.6100 C.3     1  UNL1        0.1423
     19 O         139.3665  139.9630  168.1771 O.3     1  UNL1       -0.3526
     20 H         140.1026  140.0994  162.6277 H       1  UNL1        0.1466
     21 H         138.6661  139.1808  162.6431 H       1  UNL1        0.1466
     22 C         143.5331  142.3680  163.8353 C.ar    1  UNL1        0.0384
     23 C         144.6478  141.5231  163.2935 C.ar    1  UNL1        0.1022
     24 N         145.1889  141.7865  161.9195 N.ar    1  UNL1       -0.2224
     25 C         144.6153  142.8948  161.0873 C.ar    1  UNL1        0.1989
     26 N         143.5007  143.7398  161.6291 N.ar    1  UNL1       -0.2224
     27 C         142.9595  143.4764  163.0031 C.ar    1  UNL1        0.1022
@<TRIPOS>BOND
     1     1     2    1
     2     2     3    2
     3     3     4    1
     4     4     5    1
     5     5     6    1
     6     4     7    1
     7     7     8   ar
     8     8     9   ar
     9     9    22    1
    10    22    23   ar
    11    23    24   ar
    12    24    25   ar
    13    25    26   ar
    14    26    27   ar
    15     9    10   ar
    16    10    11   ar
    17    11    12   ar
    18    12    13    1
    19    13    14    1
    20    14    15    1
    21    15    16    1
    22    16    17    1
    23    17    18    1
    24    18    19    1
    25     6     2    1
    26    12     7   ar
    27    19    15    1
    28    15     4    1
    29    27    22   ar
    30     1    20    1
    31     1    21    1
