@<TRIPOS>MOLECULE
*****
 30 32 0 0 0
SMALL
GASTEIGER

@<TRIPOS>ATOM
      1 O         141.9545  138.1523  162.5842 O.3     1  UNL1       -0.3470
      2 C         142.7938  138.6161  163.7376 C.3     1  UNL1        0.1874
      3 C         141.4024  142.0192  165.2320 C.ar    1  UNL1        0.0583
      4 C         141.1457  141.6200  166.6549 C.ar    1  UNL1        0.0186
      5 C         141.4384  140.2195  167.1054 C.ar    1  UNL1        0.0738
      6 C         141.9877  139.2182  166.1330 C.ar    1  UNL1        0.0211
      7 C         142.2444  139.6174  164.7101 C.ar    1  UNL1        0.0883
      8 N         141.9517  141.0179  164.2596 N.ar    1  UNL1       -0.2515
      9 C         141.1816  139.8203  168.5284 C.3     1  UNL1        0.4187
     10 F         140.9250  139.4211  169.9513 F       1  UNL1       -0.1659
     11 F         142.4781  139.0663  168.5507 F       1  UNL1       -0.1659
     12 F         139.8851  140.5743  168.5060 F       1  UNL1       -0.1659
     13 C         139.7483  144.0094  165.0020 C.3     1  UNL1        0.0063
     14 C         141.1097  143.4197  164.7814 C.3     1  UNL1        0.0403
     15 C         142.1785  144.2305  164.1104 C.3     1  UNL1        0.0063
     16 C         140.5029  137.8363  162.7922 C.3     1  UNL1        0.1467
     17 C         139.4500  138.6939  162.1553 C.3     1  UNL1        0.0489
     18 C         140.2854  138.3708  160.9522 C.3     1  UNL1        0.0238
     19 C         139.9048  138.9141  159.6069 C.3     1  UNL1        0.0725
     20 N         138.6886  139.7805  159.4647 N.3     1  UNL1       -0.2715
     21 C         138.3080  140.3238  158.1194 C.3     1  UNL1        0.0896
     22 C         137.8531  140.1037  160.6678 C.3     1  UNL1        0.0725
     23 C         138.2338  139.5604  162.0131 C.3     1  UNL1        0.0238
     24 C         138.9801  138.7192  163.5797 C.ar    1  UNL1       -0.0202
     25 C         138.5142  140.0063  164.1930 C.ar    1  UNL1       -0.0019
     26 C         138.0444  140.0316  165.6173 C.ar    1  UNL1        0.0293
     27 C         138.0405  138.7698  166.4283 C.ar    1  UNL1        0.1401
     28 F         137.5707  138.7950  167.8525 F       1  UNL1       -0.2042
     29 C         138.5064  137.4825  165.8149 C.ar    1  UNL1        0.0293
     30 C         138.9762  137.4574  164.3906 C.ar    1  UNL1       -0.0019
@<TRIPOS>BOND
     1    13    14    1
     2    14    15    1
     3    14     3    1
     4     3     4   ar
     5     4     5   ar
     6     5     9    1
     7     9    10    1
     8     9    11    1
     9     9    12    1
    10     5     6   ar
    11     6     7   ar
    12     7     2    1
    13     2     1    1
    14     1    16    1
    15    16    17    1
    16    17    24    1
    17    24    25   ar
    18    25    26   ar
    19    26    27   ar
    20    27    28    1
    21    27    29   ar
    22    29    30   ar
    23    17    18    1
    24    18    19    1
    25    19    20    1
    26    20    21    1
    27    20    22    1
    28    22    23    1
    29     7     8   ar
    30     8     3   ar
    31    23    17    1
    32    30    24   ar
@<TRIPOS>MOLECULE
*****
 30 32 0 0 0
SMALL
GASTEIGER

@<TRIPOS>ATOM
      1 O         143.2798  141.2261  165.1847 O.3     1  UNL1       -0.3470
      2 C         142.8486  140.1608  164.2208 C.3     1  UNL1        0.1874
      3 C         139.2634  140.1090  162.5197 C.ar    1  UNL1        0.0583
      4 C         138.4693  139.3684  163.5546 C.ar    1  UNL1        0.0186
      5 C         139.1350  138.8919  164.8115 C.ar    1  UNL1        0.0738
      6 C         140.5947  139.1560  165.0336 C.ar    1  UNL1        0.0211
      7 C         141.3888  139.8967  163.9988 C.ar    1  UNL1        0.0883
      8 N         140.7231  140.3732  162.7418 N.ar    1  UNL1       -0.2515
      9 C         138.3408  138.1513  165.8463 C.3     1  UNL1        0.4187
     10 F         137.5467  137.4107  166.8811 F       1  UNL1       -0.1659
     11 F         137.7125  139.4402  166.2866 F       1  UNL1       -0.1659
     12 F         138.9691  136.8623  165.4060 F       1  UNL1       -0.1659
     13 C         137.5253  139.7559  160.6212 C.3     1  UNL1        0.0063
     14 C         138.5977  140.5855  161.2628 C.3     1  UNL1        0.0403
     15 C         139.0044  141.8916  160.6475 C.3     1  UNL1        0.0063
     16 C         142.4148  142.4312  165.4070 C.3     1  UNL1        0.1467
     17 C         141.5879  142.5412  166.6536 C.3     1  UNL1        0.0489
     18 C         142.8695  142.0233  167.2360 C.3     1  UNL1        0.0238
     19 C         142.9789  141.7820  168.7124 C.3     1  UNL1        0.0725
     20 N         141.8066  142.0586  169.6064 N.3     1  UNL1       -0.2715
     21 C         141.9160  141.8173  171.0828 C.3     1  UNL1        0.0896
     22 C         140.5250  142.5765  169.0241 C.3     1  UNL1        0.0725
     23 C         140.4156  142.8178  167.5477 C.3     1  UNL1        0.0238
     24 C         140.5934  143.0209  165.6383 C.ar    1  UNL1       -0.0202
     25 C         140.9840  144.0761  164.6463 C.ar    1  UNL1       -0.0019
     26 C         139.9895  144.5558  163.6309 C.ar    1  UNL1        0.0293
     27 C         138.6045  143.9804  163.6076 C.ar    1  UNL1        0.1401
     28 F         137.6099  144.4600  162.5923 F       1  UNL1       -0.2042
     29 C         138.2139  142.9252  164.5997 C.ar    1  UNL1        0.0293
     30 C         139.2084  142.4455  165.6150 C.ar    1  UNL1       -0.0019
@<TRIPOS>BOND
     1    13    14    1
     2    14    15    1
     3    14     3    1
     4     3     4   ar
     5     4     5   ar
     6     5     9    1
     7     9    10    1
     8     9    11    1
     9     9    12    1
    10     5     6   ar
    11     6     7   ar
    12     7     2    1
    13     2     1    1
    14     1    16    1
    15    16    17    1
    16    17    24    1
    17    24    25   ar
    18    25    26   ar
    19    26    27   ar
    20    27    28    1
    21    27    29   ar
    22    29    30   ar
    23    17    18    1
    24    18    19    1
    25    19    20    1
    26    20    21    1
    27    20    22    1
    28    22    23    1
    29     7     8   ar
    30     8     3   ar
    31    23    17    1
    32    30    24   ar
@<TRIPOS>MOLECULE
*****
 30 32 0 0 0
SMALL
GASTEIGER

@<TRIPOS>ATOM
      1 O         142.5721  138.5177  163.1068 O.3     1  UNL1       -0.3470
      2 C         143.1489  139.0857  164.3696 C.3     1  UNL1        0.1874
      3 C         141.0680  142.2440  165.5716 C.ar    1  UNL1        0.0583
      4 C         140.6664  141.8109  166.9503 C.ar    1  UNL1        0.0186
      5 C         141.0923  140.4694  167.4689 C.ar    1  UNL1        0.0738
      6 C         141.9198  139.5610  166.6087 C.ar    1  UNL1        0.0211
      7 C         142.3214  139.9941  165.2299 C.ar    1  UNL1        0.0883
      8 N         141.8955  141.3356  164.7113 N.ar    1  UNL1       -0.2515
      9 C         140.6907  140.0363  168.8478 C.3     1  UNL1        0.4187
     10 F         140.2891  139.6032  170.2266 F       1  UNL1       -0.1659
     11 F         139.3852  140.7587  168.6944 F       1  UNL1       -0.1659
     12 F         141.9963  139.3138  169.0012 F       1  UNL1       -0.1659
     13 C         141.5673  144.3805  164.1802 C.3     1  UNL1        0.0063
     14 C         140.6421  143.5856  165.0530 C.3     1  UNL1        0.0403
     15 C         139.2909  144.1321  165.4073 C.3     1  UNL1        0.0063
     16 C         141.1989  137.9140  163.1147 C.3     1  UNL1        0.1467
     17 C         140.1266  138.4782  162.2305 C.3     1  UNL1        0.0489
     18 C         141.1887  138.2020  161.2080 C.3     1  UNL1        0.0238
     19 C         140.9391  138.5178  159.7631 C.3     1  UNL1        0.0725
     20 N         139.6271  139.1098  159.3406 N.3     1  UNL1       -0.2715
     21 C         139.3775  139.4256  157.8956 C.3     1  UNL1        0.0896
     22 C         138.5650  139.3860  160.3630 C.3     1  UNL1        0.0725
     23 C         138.8147  139.0702  161.8080 C.3     1  UNL1        0.0238
     24 C         139.4368  138.5584  163.5601 C.ar    1  UNL1       -0.0202
     25 C         139.3883  137.3546  164.4537 C.ar    1  UNL1       -0.0019
     26 C         138.6985  137.4349  165.7833 C.ar    1  UNL1        0.0293
     27 C         138.0573  138.7189  166.2192 C.ar    1  UNL1        0.1401
     28 F         137.3675  138.7992  167.5488 F       1  UNL1       -0.2042
     29 C         138.1058  139.9227  165.3256 C.ar    1  UNL1        0.0293
     30 C         138.7956  139.8424  163.9960 C.ar    1  UNL1       -0.0019
@<TRIPOS>BOND
     1    13    14    1
     2    14    15    1
     3    14     3    1
     4     3     4   ar
     5     4     5   ar
     6     5     9    1
     7     9    10    1
     8     9    11    1
     9     9    12    1
    10     5     6   ar
    11     6     7   ar
    12     7     2    1
    13     2     1    1
    14     1    16    1
    15    16    17    1
    16    17    24    1
    17    24    25   ar
    18    25    26   ar
    19    26    27   ar
    20    27    28    1
    21    27    29   ar
    22    29    30   ar
    23    17    18    1
    24    18    19    1
    25    19    20    1
    26    20    21    1
    27    20    22    1
    28    22    23    1
    29     7     8   ar
    30     8     3   ar
    31    23    17    1
    32    30    24   ar
@<TRIPOS>MOLECULE
*****
 30 32 0 0 0
SMALL
GASTEIGER

@<TRIPOS>ATOM
      1 O         143.4328  140.4632  165.6828 O.3     1  UNL1       -0.3470
      2 C         143.3790  141.4573  164.5609 C.3     1  UNL1        0.1874
      3 C         140.1725  141.9908  162.2841 C.ar    1  UNL1        0.0583
      4 C         139.4078  142.9896  163.1010 C.ar    1  UNL1        0.0186
      5 C         139.9667  143.4777  164.4046 C.ar    1  UNL1        0.0738
      6 C         141.2904  142.9669  164.8913 C.ar    1  UNL1        0.0211
      7 C         142.0552  141.9681  164.0743 C.ar    1  UNL1        0.0883
      8 N         141.4963  141.4801  162.7707 N.ar    1  UNL1       -0.2515
      9 C         139.2019  144.4765  165.2216 C.3     1  UNL1        0.4187
     10 F         138.4370  145.4753  166.0385 F       1  UNL1       -0.1659
     11 F         138.7391  145.1507  163.9641 F       1  UNL1       -0.1659
     12 F         139.6646  143.8024  166.4791 F       1  UNL1       -0.1659
     13 C         138.5640  142.3031  160.2679 C.3     1  UNL1        0.0063
     14 C         139.6136  141.5028  160.9804 C.3     1  UNL1        0.0403
     15 C         140.1042  140.2144  160.3894 C.3     1  UNL1        0.0063
     16 C         142.2963  139.5070  165.8929 C.3     1  UNL1        0.1467
     17 C         141.2724  139.7806  166.9544 C.3     1  UNL1        0.0489
     18 C         142.5296  140.0044  167.7412 C.3     1  UNL1        0.0238
     19 C         142.4499  140.3910  169.1883 C.3     1  UNL1        0.0725
     20 N         141.1129  140.5539  169.8485 N.3     1  UNL1       -0.2715
     21 C         141.0332  140.9406  171.2956 C.3     1  UNL1        0.0896
     22 C         139.8557  140.3301  169.0617 C.3     1  UNL1        0.0725
     23 C         139.9354  139.9435  167.6146 C.3     1  UNL1        0.0238
     24 C         140.3707  139.4618  165.7988 C.ar    1  UNL1       -0.0202
     25 C         139.0678  140.1882  165.6415 C.ar    1  UNL1       -0.0019
     26 C         138.1661  139.8694  164.4859 C.ar    1  UNL1        0.0293
     27 C         138.5673  138.8242  163.4877 C.ar    1  UNL1        0.1401
     28 F         137.6657  138.5053  162.3321 F       1  UNL1       -0.2042
     29 C         139.8703  138.0977  163.6450 C.ar    1  UNL1        0.0293
     30 C         140.7719  138.4166  164.8005 C.ar    1  UNL1       -0.0019
@<TRIPOS>BOND
     1    13    14    1
     2    14    15    1
     3    14     3    1
     4     3     4   ar
     5     4     5   ar
     6     5     9    1
     7     9    10    1
     8     9    11    1
     9     9    12    1
    10     5     6   ar
    11     6     7   ar
    12     7     2    1
    13     2     1    1
    14     1    16    1
    15    16    17    1
    16    17    24    1
    17    24    25   ar
    18    25    26   ar
    19    26    27   ar
    20    27    28    1
    21    27    29   ar
    22    29    30   ar
    23    17    18    1
    24    18    19    1
    25    19    20    1
    26    20    21    1
    27    20    22    1
    28    22    23    1
    29     7     8   ar
    30     8     3   ar
    31    23    17    1
    32    30    24   ar
@<TRIPOS>MOLECULE
*****
 30 32 0 0 0
SMALL
GASTEIGER

@<TRIPOS>ATOM
      1 O         142.5154  138.1166  163.1619 O.3     1  UNL1       -0.3470
      2 C         143.2619  138.9585  164.1538 C.3     1  UNL1        0.1874
      3 C         141.4078  140.4523  167.3288 C.ar    1  UNL1        0.0583
      4 C         141.0242  141.8103  166.8202 C.ar    1  UNL1        0.0186
      5 C         141.3865  142.2177  165.4228 C.ar    1  UNL1        0.0738
      6 C         142.1324  141.2671  164.5340 C.ar    1  UNL1        0.0211
      7 C         142.5160  139.9091  165.0426 C.ar    1  UNL1        0.0883
      8 N         142.1537  139.5017  166.4400 N.ar    1  UNL1       -0.2515
      9 C         141.0028  143.5757  164.9142 C.3     1  UNL1        0.4187
     10 F         140.6191  144.9337  164.4056 F       1  UNL1       -0.1659
     11 F         139.5887  143.3417  165.3562 F       1  UNL1       -0.1659
     12 F         142.4169  143.8097  164.4721 F       1  UNL1       -0.1659
     13 C         142.0529  139.3430  169.5878 C.3     1  UNL1        0.0063
     14 C         141.0455  140.0449  168.7262 C.3     1  UNL1        0.0403
     15 C         139.6758  140.3394  169.2620 C.3     1  UNL1        0.0063
     16 C         141.0673  137.7975  163.3885 C.3     1  UNL1        0.1467
     17 C         140.0167  138.4216  162.5186 C.3     1  UNL1        0.0489
     18 C         141.0776  138.1521  161.4931 C.3     1  UNL1        0.0238
     19 C         140.8462  138.5251  160.0588 C.3     1  UNL1        0.0725
     20 N         139.5539  139.1676  159.6500 N.3     1  UNL1       -0.2715
     21 C         139.3225  139.5406  158.2157 C.3     1  UNL1        0.0896
     22 C         138.4930  139.4371  160.6755 C.3     1  UNL1        0.0725
     23 C         138.7244  139.0641  162.1099 C.3     1  UNL1        0.0238
     24 C         139.3206  138.4744  163.8463 C.ar    1  UNL1       -0.0202
     25 C         139.1181  137.2161  164.6374 C.ar    1  UNL1       -0.0019
     26 C         138.4220  137.2688  165.9651 C.ar    1  UNL1        0.0293
     27 C         137.9285  138.5797  166.5017 C.ar    1  UNL1        0.1401
     28 F         137.2325  138.6325  167.8293 F       1  UNL1       -0.2042
     29 C         138.1311  139.8380  165.7106 C.ar    1  UNL1        0.0293
     30 C         138.8272  139.7852  164.3829 C.ar    1  UNL1       -0.0019
@<TRIPOS>BOND
     1    13    14    1
     2    14    15    1
     3    14     3    1
     4     3     4   ar
     5     4     5   ar
     6     5     9    1
     7     9    10    1
     8     9    11    1
     9     9    12    1
    10     5     6   ar
    11     6     7   ar
    12     7     2    1
    13     2     1    1
    14     1    16    1
    15    16    17    1
    16    17    24    1
    17    24    25   ar
    18    25    26   ar
    19    26    27   ar
    20    27    28    1
    21    27    29   ar
    22    29    30   ar
    23    17    18    1
    24    18    19    1
    25    19    20    1
    26    20    21    1
    27    20    22    1
    28    22    23    1
    29     7     8   ar
    30     8     3   ar
    31    23    17    1
    32    30    24   ar
@<TRIPOS>MOLECULE
*****
 30 32 0 0 0
SMALL
GASTEIGER

@<TRIPOS>ATOM
      1 O         138.4847  138.9067  163.3070 O.3     1  UNL1       -0.3470
      2 C         138.5246  138.5043  164.7515 C.3     1  UNL1        0.1874
      3 C         140.3731  140.3605  167.7326 C.ar    1  UNL1        0.0583
      4 C         141.8047  140.0359  167.4244 C.ar    1  UNL1        0.0186
      5 C         142.1430  139.2007  166.2252 C.ar    1  UNL1        0.0738
      6 C         141.0496  138.6902  165.3342 C.ar    1  UNL1        0.0211
      7 C         139.6180  139.0148  165.6424 C.ar    1  UNL1        0.0883
      8 N         139.2798  139.8500  166.8416 N.ar    1  UNL1       -0.2515
      9 C         143.5747  138.8761  165.9170 C.3     1  UNL1        0.4187
     10 F         145.0063  138.5514  165.6089 F       1  UNL1       -0.1659
     11 F         143.6899  138.1454  167.2219 F       1  UNL1       -0.1659
     12 F         143.4595  139.6067  164.6121 F       1  UNL1       -0.1659
     13 C         140.5735  142.5906  169.0504 C.3     1  UNL1        0.0063
     14 C         140.0349  141.1957  168.9318 C.3     1  UNL1        0.0403
     15 C         139.1580  140.6360  170.0124 C.3     1  UNL1        0.0063
     16 C         138.7163  140.3375  162.9204 C.3     1  UNL1        0.1467
     17 C         140.0931  140.7997  162.5456 C.3     1  UNL1        0.0489
     18 C         140.0458  139.4956  161.8060 C.3     1  UNL1        0.0238
     19 C         141.2257  139.0509  160.9937 C.3     1  UNL1        0.0725
     20 N         142.4530  139.9103  160.9209 N.3     1  UNL1       -0.2715
     21 C         143.6329  139.4655  160.1085 C.3     1  UNL1        0.0896
     22 C         142.5003  141.2144  161.6604 C.3     1  UNL1        0.0725
     23 C         141.3204  141.6592  162.4728 C.3     1  UNL1        0.0238
     24 C         139.6623  141.9434  163.4154 C.ar    1  UNL1       -0.0202
     25 C         138.3800  142.6652  163.1245 C.ar    1  UNL1       -0.0019
     26 C         137.9491  143.8089  163.9943 C.ar    1  UNL1        0.0293
     27 C         138.8005  144.2306  165.1549 C.ar    1  UNL1        0.1401
     28 F         138.3697  145.3742  166.0247 F       1  UNL1       -0.2042
     29 C         140.0828  143.5087  165.4459 C.ar    1  UNL1        0.0293
     30 C         140.5136  142.3651  164.5761 C.ar    1  UNL1       -0.0019
@<TRIPOS>BOND
     1    13    14    1
     2    14    15    1
     3    14     3    1
     4     3     4   ar
     5     4     5   ar
     6     5     9    1
     7     9    10    1
     8     9    11    1
     9     9    12    1
    10     5     6   ar
    11     6     7   ar
    12     7     2    1
    13     2     1    1
    14     1    16    1
    15    16    17    1
    16    17    24    1
    17    24    25   ar
    18    25    26   ar
    19    26    27   ar
    20    27    28    1
    21    27    29   ar
    22    29    30   ar
    23    17    18    1
    24    18    19    1
    25    19    20    1
    26    20    21    1
    27    20    22    1
    28    22    23    1
    29     7     8   ar
    30     8     3   ar
    31    23    17    1
    32    30    24   ar
@<TRIPOS>MOLECULE
*****
 30 32 0 0 0
SMALL
GASTEIGER

@<TRIPOS>ATOM
      1 O         140.6083  139.2079  165.4165 O.3     1  UNL1       -0.3470
      2 C         141.5028  139.4820  164.2441 C.3     1  UNL1        0.1874
      3 C         141.4693  142.9487  162.3126 C.ar    1  UNL1        0.0583
      4 C         142.4812  143.7236  163.1035 C.ar    1  UNL1        0.0186
      5 C         143.1669  143.0847  164.2746 C.ar    1  UNL1        0.0738
      6 C         142.8408  141.6708  164.6548 C.ar    1  UNL1        0.0211
      7 C         141.8290  140.8959  163.8639 C.ar    1  UNL1        0.0883
      8 N         141.1432  141.5348  162.6928 N.ar    1  UNL1       -0.2515
      9 C         144.1788  143.8597  165.0655 C.3     1  UNL1        0.4187
     10 F         145.1907  144.6347  165.8565 F       1  UNL1       -0.1659
     11 F         144.0745  142.8598  166.1787 F       1  UNL1       -0.1659
     12 F         144.2832  144.8596  163.9523 F       1  UNL1       -0.1659
     13 C         139.5973  142.9201  160.5113 C.3     1  UNL1        0.0063
     14 C         140.7836  143.5876  161.1415 C.3     1  UNL1        0.0403
     15 C         141.2841  144.8940  160.6005 C.3     1  UNL1        0.0063
     16 C         139.6096  140.2378  165.8548 C.3     1  UNL1        0.1467
     17 C         139.9781  141.2386  166.9095 C.3     1  UNL1        0.0489
     18 C         140.4443  139.9770  167.5734 C.3     1  UNL1        0.0238
     19 C         141.0726  140.0336  168.9343 C.3     1  UNL1        0.0725
     20 N         141.2348  141.3520  169.6312 N.3     1  UNL1       -0.2715
     21 C         141.8631  141.4086  170.9921 C.3     1  UNL1        0.0896
     22 C         140.7686  142.6136  168.9673 C.3     1  UNL1        0.0725
     23 C         140.1403  142.5570  167.6065 C.3     1  UNL1        0.0238
     24 C         139.3839  142.1528  165.8793 C.ar    1  UNL1       -0.0202
     25 C         138.3585  141.6317  164.9164 C.ar    1  UNL1       -0.0019
     26 C         137.7643  142.5459  163.8862 C.ar    1  UNL1        0.0293
     27 C         138.1955  143.9809  163.8188 C.ar    1  UNL1        0.1401
     28 F         137.6014  144.8950  162.7886 F       1  UNL1       -0.2042
     29 C         139.2210  144.5019  164.7817 C.ar    1  UNL1        0.0293
     30 C         139.8151  143.5878  165.8119 C.ar    1  UNL1       -0.0019
@<TRIPOS>BOND
     1    13    14    1
     2    14    15    1
     3    14     3    1
     4     3     4   ar
     5     4     5   ar
     6     5     9    1
     7     9    10    1
     8     9    11    1
     9     9    12    1
    10     5     6   ar
    11     6     7   ar
    12     7     2    1
    13     2     1    1
    14     1    16    1
    15    16    17    1
    16    17    24    1
    17    24    25   ar
    18    25    26   ar
    19    26    27   ar
    20    27    28    1
    21    27    29   ar
    22    29    30   ar
    23    17    18    1
    24    18    19    1
    25    19    20    1
    26    20    21    1
    27    20    22    1
    28    22    23    1
    29     7     8   ar
    30     8     3   ar
    31    23    17    1
    32    30    24   ar
@<TRIPOS>MOLECULE
*****
 30 32 0 0 0
SMALL
GASTEIGER

@<TRIPOS>ATOM
      1 O         141.5923  138.8889  165.5749 O.3     1  UNL1       -0.3470
      2 C         140.5490  139.1827  164.5381 C.3     1  UNL1        0.1874
      3 C         140.9836  142.3463  162.1816 C.ar    1  UNL1        0.0583
      4 C         140.1236  143.3492  162.8920 C.ar    1  UNL1        0.0186
      5 C         139.4055  142.9633  164.1511 C.ar    1  UNL1        0.0738
      6 C         139.5473  141.5745  164.6998 C.ar    1  UNL1        0.0211
      7 C         140.4072  140.5716  163.9894 C.ar    1  UNL1        0.0883
      8 N         141.1253  140.9575  162.7303 N.ar    1  UNL1       -0.2515
      9 C         138.5455  143.9662  164.8615 C.3     1  UNL1        0.4187
     10 F         137.6856  144.9692  165.5719 F       1  UNL1       -0.1659
     11 F         139.7046  144.9163  164.9232 F       1  UNL1       -0.1659
     12 F         137.3864  143.0162  164.7998 F       1  UNL1       -0.1659
     13 C         141.5857  144.1302  160.3913 C.3     1  UNL1        0.0063
     14 C         141.7017  142.7323  160.9225 C.3     1  UNL1        0.0403
     15 C         142.5358  141.7202  160.1946 C.3     1  UNL1        0.0063
     16 C         142.7790  139.7945  165.7226 C.3     1  UNL1        0.1467
     17 C         142.8009  140.8312  166.8065 C.3     1  UNL1        0.0489
     18 C         142.2796  139.6566  167.5800 C.3     1  UNL1        0.0238
     19 C         141.9586  139.8015  169.0381 C.3     1  UNL1        0.0725
     20 N         142.1590  141.1212  169.7226 N.3     1  UNL1       -0.2715
     21 C         141.8380  141.2661  171.1806 C.3     1  UNL1        0.0896
     22 C         142.6803  142.2958  168.9490 C.3     1  UNL1        0.0725
     23 C         143.0012  142.1509  167.4910 C.3     1  UNL1        0.0238
     24 C         143.3146  141.6459  165.6564 C.ar    1  UNL1       -0.0202
     25 C         142.9032  143.0810  165.5111 C.ar    1  UNL1       -0.0019
     26 C         143.4169  143.8956  164.3610 C.ar    1  UNL1        0.0293
     27 C         144.3420  143.2751  163.3564 C.ar    1  UNL1        0.1401
     28 F         144.8557  144.0897  162.2064 F       1  UNL1       -0.2042
     29 C         144.7533  141.8399  163.5018 C.ar    1  UNL1        0.0293
     30 C         144.2396  141.0254  164.6518 C.ar    1  UNL1       -0.0019
@<TRIPOS>BOND
     1    13    14    1
     2    14    15    1
     3    14     3    1
     4     3     4   ar
     5     4     5   ar
     6     5     9    1
     7     9    10    1
     8     9    11    1
     9     9    12    1
    10     5     6   ar
    11     6     7   ar
    12     7     2    1
    13     2     1    1
    14     1    16    1
    15    16    17    1
    16    17    24    1
    17    24    25   ar
    18    25    26   ar
    19    26    27   ar
    20    27    28    1
    21    27    29   ar
    22    29    30   ar
    23    17    18    1
    24    18    19    1
    25    19    20    1
    26    20    21    1
    27    20    22    1
    28    22    23    1
    29     7     8   ar
    30     8     3   ar
    31    23    17    1
    32    30    24   ar
@<TRIPOS>MOLECULE
*****
 30 32 0 0 0
SMALL
GASTEIGER

@<TRIPOS>ATOM
      1 O         138.9574  144.7238  162.8783 O.3     1  UNL1       -0.3470
      2 C         138.5357  144.5869  164.3112 C.3     1  UNL1        0.1874
      3 C         140.3086  142.4730  167.1640 C.ar    1  UNL1        0.0583
      4 C         139.9495  141.0775  166.7474 C.ar    1  UNL1        0.0186
      5 C         139.1192  140.8517  165.5187 C.ar    1  UNL1        0.0738
      6 C         138.6479  142.0215  164.7067 C.ar    1  UNL1        0.0211
      7 C         139.0070  143.4170  165.1233 C.ar    1  UNL1        0.0883
      8 N         139.8373  143.6427  166.3519 N.ar    1  UNL1       -0.2515
      9 C         138.7602  139.4561  165.1021 C.3     1  UNL1        0.4187
     10 F         138.4011  138.0606  164.6856 F       1  UNL1       -0.1659
     11 F         137.7473  139.3872  166.2063 F       1  UNL1       -0.1659
     12 F         139.7730  139.5251  163.9980 F       1  UNL1       -0.1659
     13 C         140.5472  143.3997  169.5794 C.3     1  UNL1        0.0063
     14 C         141.1389  142.6987  168.3926 C.3     1  UNL1        0.0403
     15 C         142.5610  142.2234  168.4345 C.3     1  UNL1        0.0063
     16 C         140.3859  144.4807  162.4904 C.3     1  UNL1        0.1467
     17 C         140.7992  143.1439  161.9500 C.3     1  UNL1        0.0489
     18 C         139.5610  143.3817  161.1375 C.3     1  UNL1        0.0238
     19 C         139.1163  142.3614  160.1320 C.3     1  UNL1        0.0725
     20 N         139.9098  141.1032  159.9390 N.3     1  UNL1       -0.2715
     21 C         139.4651  140.0828  158.9334 C.3     1  UNL1        0.0896
     22 C         141.1480  140.8653  160.7515 C.3     1  UNL1        0.0725
     23 C         141.5927  141.8856  161.7570 C.3     1  UNL1        0.0238
     24 C         141.8939  143.3703  162.9503 C.ar    1  UNL1       -0.0202
     25 C         142.2613  142.2852  163.9186 C.ar    1  UNL1       -0.0019
     26 C         143.3560  142.5116  164.9188 C.ar    1  UNL1        0.0293
     27 C         144.0833  143.8231  164.9507 C.ar    1  UNL1        0.1401
     28 F         145.1779  144.0496  165.9509 F       1  UNL1       -0.2042
     29 C         143.7159  144.9082  163.9823 C.ar    1  UNL1        0.0293
     30 C         142.6212  144.6817  162.9821 C.ar    1  UNL1       -0.0019
@<TRIPOS>BOND
     1    13    14    1
     2    14    15    1
     3    14     3    1
     4     3     4   ar
     5     4     5   ar
     6     5     9    1
     7     9    10    1
     8     9    11    1
     9     9    12    1
    10     5     6   ar
    11     6     7   ar
    12     7     2    1
    13     2     1    1
    14     1    16    1
    15    16    17    1
    16    17    24    1
    17    24    25   ar
    18    25    26   ar
    19    26    27   ar
    20    27    28    1
    21    27    29   ar
    22    29    30   ar
    23    17    18    1
    24    18    19    1
    25    19    20    1
    26    20    21    1
    27    20    22    1
    28    22    23    1
    29     7     8   ar
    30     8     3   ar
    31    23    17    1
    32    30    24   ar
