@<TRIPOS>MOLECULE
*****
 37 42 0 0 0
SMALL
GASTEIGER

@<TRIPOS>ATOM
      1 C         142.5752  142.6507  158.1945 C.3     1  UNL1        0.0948
      2 N         142.7207  141.4041  157.3732 N.3     1  UNL1       -0.2887
      3 C         143.3926  140.1962  157.9560 C.3     1  UNL1        0.1161
      4 C         143.9189  140.2350  159.3601 C.3     1  UNL1        0.0510
      5 C         143.7733  141.4816  160.1814 C.2     1  UNL1       -0.0044
      6 C         143.1015  142.6895  159.5986 C.2     1  UNL1        0.0689
      7 N         143.1030  143.7686  160.6406 N.2     1  UNL1       -0.2526
      8 C         143.7757  143.2276  161.8673 C.2     1  UNL1        0.0627
      9 C         144.0646  143.8395  163.2060 C.3     1  UNL1        0.0717
     10 C         144.7677  143.0379  164.2609 C.2     1  UNL1       -0.0198
     11 C         145.1820  141.6244  163.9771 C.2     1  UNL1       -0.0042
     12 C         144.8932  141.0126  162.6384 C.2     1  UNL1        0.0006
     13 C         144.1900  141.8142  161.5835 C.2     1  UNL1        0.0111
     14 H         143.2487  141.6609  156.5391 H       1  UNL1        0.1239
     15 C         138.2196  149.4604  156.0952 C.3     1  UNL1        0.1122
     16 N         138.8915  148.2525  156.6780 N.am    1  UNL1       -0.2870
     17 C         139.8880  147.4823  155.8632 C.2     1  UNL1        0.3040
     18 O         140.2126  147.9199  154.4657 O.2     1  UNL1       -0.2526
     19 N         140.5598  146.2744  156.4460 N.am    1  UNL1       -0.2642
     20 C         140.2351  145.8368  157.8435 C.3     1  UNL1        0.0950
     21 C         140.9070  144.6288  158.4264 C.3     1  UNL1        0.0233
     22 C         141.9034  143.8586  157.6117 C.3     1  UNL1        0.0236
     23 C         142.2280  144.2963  156.2141 C.3     1  UNL1        0.0233
     24 C         141.5563  145.5041  155.6313 C.3     1  UNL1        0.0950
     25 H         138.6784  147.9653  157.5952 H       1  UNL1        0.1510
     26 C         143.5381  138.9494  157.1346 C.ar    1  UNL1        0.1318
     27 N         142.9448  137.6092  157.4537 N.ar    1  UNL1       -0.2298
     28 C         143.3425  136.6555  156.3664 C.ar    1  UNL1        0.0996
     29 C         144.1815  137.4064  155.3753 C.ar    1  UNL1        0.0927
     30 N         144.3024  138.8241  155.8501 N.ar    1  UNL1       -0.3386
     31 H         144.7967  139.5456  155.3981 H       1  UNL1        0.1672
     32 C         142.9670  135.2056  156.2845 C.ar    1  UNL1        0.0192
     33 C         141.8434  134.7711  155.3908 C.ar    1  UNL1        0.0015
     34 C         141.4679  133.3212  155.3089 C.ar    1  UNL1        0.0000
     35 C         142.2160  132.3058  156.1207 C.ar    1  UNL1        0.0000
     36 C         143.3396  132.7402  157.0144 C.ar    1  UNL1        0.0000
     37 C         143.7151  134.1901  157.0963 C.ar    1  UNL1        0.0015
@<TRIPOS>BOND
     1    15    16    1
     2    16    17   am
     3    17    18    2
     4    17    19   am
     5    19    20    1
     6    20    21    1
     7    21    22    1
     8    22     1    1
     9     1     2    1
    10     2     3    1
    11     3    26    1
    12    26    27   ar
    13    27    28   ar
    14    28    32    1
    15    32    33   ar
    16    33    34   ar
    17    34    35   ar
    18    35    36   ar
    19    36    37   ar
    20    28    29   ar
    21    29    30   ar
    22     3     4    1
    23     4     5    1
    24     5     6    2
    25     6     7    1
    26     7     8    2
    27     8     9    1
    28     9    10    1
    29    10    11    2
    30    11    12    1
    31    12    13    2
    32    22    23    1
    33    23    24    1
    34    24    19    1
    35     6     1    1
    36    13     8    1
    37    30    26   ar
    38    13     5    1
    39    37    32   ar
    40    16    25    1
    41     2    14    1
    42    30    31    1
@<TRIPOS>MOLECULE
*****
 37 42 0 0 0
SMALL
GASTEIGER

@<TRIPOS>ATOM
      1 C         141.3493  140.4635  158.5148 C.3     1  UNL1        0.0948
      2 N         140.1769  140.7236  157.6160 N.3     1  UNL1       -0.2887
      3 C         138.8009  140.2999  158.0367 C.3     1  UNL1        0.1161
      4 C         138.5973  139.6160  159.3561 C.3     1  UNL1        0.0510
      5 C         139.7696  139.3560  160.2549 C.2     1  UNL1       -0.0044
      6 C         141.1457  139.7797  159.8343 C.2     1  UNL1        0.0689
      7 N         142.1028  139.3924  160.9223 N.2     1  UNL1       -0.2526
      8 C         141.3183  138.7292  162.0154 C.2     1  UNL1        0.0627
      9 C         141.7307  138.1430  163.3330 C.3     1  UNL1        0.0717
     10 C         140.7012  137.5342  164.2382 C.2     1  UNL1       -0.0198
     11 C         139.2592  137.5117  163.8257 C.2     1  UNL1       -0.0042
     12 C         138.8467  138.0980  162.5081 C.2     1  UNL1        0.0006
     13 C         139.8763  138.7067  161.6029 C.2     1  UNL1        0.0111
     14 H         140.3729  140.2527  156.7327 H       1  UNL1        0.1239
     15 C         148.9389  141.8450  155.3147 C.3     1  UNL1        0.1122
     16 N         147.5628  141.4212  155.7354 N.am    1  UNL1       -0.2870
     17 C         146.8535  142.1586  156.8322 C.2     1  UNL1        0.3040
     18 O         147.5201  143.3198  157.5084 O.2     1  UNL1       -0.2526
     19 N         145.4774  141.7349  157.2529 N.am    1  UNL1       -0.2642
     20 C         144.8108  140.5737  156.5767 C.3     1  UNL1        0.0950
     21 C         143.4347  140.1499  156.9974 C.3     1  UNL1        0.0233
     22 C         142.7254  140.8873  158.0941 C.3     1  UNL1        0.0236
     23 C         143.3921  142.0485  158.7703 C.3     1  UNL1        0.0233
     24 C         144.7681  142.4723  158.3497 C.3     1  UNL1        0.0950
     25 H         147.1253  140.6591  155.2916 H       1  UNL1        0.1510
     26 C         137.6284  140.5599  157.1379 C.ar    1  UNL1        0.1318
     27 N         136.1849  140.3563  157.4907 N.ar    1  UNL1       -0.2298
     28 C         135.3580  140.7398  156.2994 C.ar    1  UNL1        0.0996
     29 C         136.2905  141.1804  155.2103 C.ar    1  UNL1        0.0927
     30 N         137.6938  141.0692  155.7285 N.ar    1  UNL1       -0.3386
     31 H         138.5137  141.2915  155.2310 H       1  UNL1        0.1672
     32 C         133.8612  140.6912  156.2125 C.ar    1  UNL1        0.0192
     33 C         133.0897  139.7454  157.0844 C.ar    1  UNL1        0.0015
     34 C         131.5930  139.6967  156.9975 C.ar    1  UNL1        0.0000
     35 C         130.8679  140.5939  156.0387 C.ar    1  UNL1        0.0000
     36 C         131.6395  141.5396  155.1668 C.ar    1  UNL1        0.0000
     37 C         133.1361  141.5883  155.2537 C.ar    1  UNL1        0.0015
@<TRIPOS>BOND
     1    15    16    1
     2    16    17   am
     3    17    18    2
     4    17    19   am
     5    19    20    1
     6    20    21    1
     7    21    22    1
     8    22     1    1
     9     1     2    1
    10     2     3    1
    11     3    26    1
    12    26    27   ar
    13    27    28   ar
    14    28    32    1
    15    32    33   ar
    16    33    34   ar
    17    34    35   ar
    18    35    36   ar
    19    36    37   ar
    20    28    29   ar
    21    29    30   ar
    22     3     4    1
    23     4     5    1
    24     5     6    2
    25     6     7    1
    26     7     8    2
    27     8     9    1
    28     9    10    1
    29    10    11    2
    30    11    12    1
    31    12    13    2
    32    22    23    1
    33    23    24    1
    34    24    19    1
    35     6     1    1
    36    13     8    1
    37    30    26   ar
    38    13     5    1
    39    37    32   ar
    40    16    25    1
    41     2    14    1
    42    30    31    1
@<TRIPOS>MOLECULE
*****
 37 42 0 0 0
SMALL
GASTEIGER

@<TRIPOS>ATOM
      1 C         139.4408  146.0922  156.6877 C.3     1  UNL1        0.0948
      2 N         140.2703  145.9004  157.9226 N.3     1  UNL1       -0.2887
      3 C         140.3866  144.5403  158.5443 C.3     1  UNL1        0.1161
      4 C         139.6733  143.3719  157.9310 C.3     1  UNL1        0.0510
      5 C         138.8438  143.5636  156.6960 C.2     1  UNL1       -0.0044
      6 C         138.7276  144.9238  156.0744 C.2     1  UNL1        0.0689
      7 N         137.8445  144.8078  154.8674 N.2     1  UNL1       -0.2526
      8 C         137.4150  143.3759  154.7431 C.2     1  UNL1        0.0627
      9 C         136.5414  142.6730  153.7468 C.3     1  UNL1        0.0717
     10 C         136.2854  141.2011  153.8807 C.2     1  UNL1       -0.0198
     11 C         136.9030  140.4322  155.0109 C.2     1  UNL1       -0.0042
     12 C         137.7766  141.1351  156.0072 C.2     1  UNL1        0.0006
     13 C         138.0327  142.6070  155.8733 C.2     1  UNL1        0.0111
     14 H         139.8833  146.5182  158.6361 H       1  UNL1        0.1239
     15 C         138.0925  153.9748  154.2803 C.3     1  UNL1        0.1122
     16 N         138.2088  152.6147  154.9019 N.am    1  UNL1       -0.2870
     17 C         138.9758  151.5328  154.2010 C.2     1  UNL1        0.3040
     18 O         139.6266  151.8110  152.8785 O.2     1  UNL1       -0.2526
     19 N         139.0921  150.1726  154.8227 N.am    1  UNL1       -0.2642
     20 C         138.4413  149.8944  156.1452 C.3     1  UNL1        0.0950
     21 C         138.5576  148.5342  156.7669 C.3     1  UNL1        0.0233
     22 C         139.3245  147.4523  156.0660 C.3     1  UNL1        0.0236
     23 C         139.9753  147.7306  154.7435 C.3     1  UNL1        0.0233
     24 C         139.8591  149.0907  154.1218 C.3     1  UNL1        0.0950
     25 H         137.7817  152.4320  155.7699 H       1  UNL1        0.1510
     26 C         141.2161  144.3485  159.7793 C.ar    1  UNL1        0.1318
     27 N         141.9441  143.0955  160.1665 N.ar    1  UNL1       -0.2298
     28 C         142.6412  143.3486  161.4704 C.ar    1  UNL1        0.0996
     29 C         142.3440  144.7580  161.8889 C.ar    1  UNL1        0.0927
     30 N         141.4632  145.3760  160.8438 N.ar    1  UNL1       -0.3386
     31 H         141.1095  146.2946  160.8546 H       1  UNL1        0.1672
     32 C         143.4870  142.3649  162.2234 C.ar    1  UNL1        0.0192
     33 C         143.1408  140.9056  162.2000 C.ar    1  UNL1        0.0015
     34 C         143.9865  139.9219  162.9530 C.ar    1  UNL1        0.0000
     35 C         145.1785  140.3976  163.7295 C.ar    1  UNL1        0.0000
     36 C         145.5248  141.8569  163.7529 C.ar    1  UNL1        0.0000
     37 C         144.6790  142.8406  162.9998 C.ar    1  UNL1        0.0015
@<TRIPOS>BOND
     1    15    16    1
     2    16    17   am
     3    17    18    2
     4    17    19   am
     5    19    20    1
     6    20    21    1
     7    21    22    1
     8    22     1    1
     9     1     2    1
    10     2     3    1
    11     3    26    1
    12    26    27   ar
    13    27    28   ar
    14    28    32    1
    15    32    33   ar
    16    33    34   ar
    17    34    35   ar
    18    35    36   ar
    19    36    37   ar
    20    28    29   ar
    21    29    30   ar
    22     3     4    1
    23     4     5    1
    24     5     6    2
    25     6     7    1
    26     7     8    2
    27     8     9    1
    28     9    10    1
    29    10    11    2
    30    11    12    1
    31    12    13    2
    32    22    23    1
    33    23    24    1
    34    24    19    1
    35     6     1    1
    36    13     8    1
    37    30    26   ar
    38    13     5    1
    39    37    32   ar
    40    16    25    1
    41     2    14    1
    42    30    31    1
@<TRIPOS>MOLECULE
*****
 37 42 0 0 0
SMALL
GASTEIGER

@<TRIPOS>ATOM
      1 C         142.6705  137.0256  156.8531 C.3     1  UNL1        0.0948
      2 N         141.6136  137.2479  157.8940 N.3     1  UNL1       -0.2887
      3 C         141.3200  138.6362  158.3801 C.3     1  UNL1        0.1161
      4 C         142.0832  139.8023  157.8252 C.3     1  UNL1        0.0510
      5 C         143.1401  139.5800  156.7843 C.2     1  UNL1       -0.0044
      6 C         143.4337  138.1917  156.2982 C.2     1  UNL1        0.0689
      7 N         144.5239  138.2809  155.2718 N.2     1  UNL1       -0.2526
      8 C         144.9040  139.7243  155.1235 C.2     1  UNL1        0.0627
      9 C         145.9183  140.4113  154.2580 C.3     1  UNL1        0.0717
     10 C         146.0775  141.9012  154.3274 C.2     1  UNL1       -0.0198
     11 C         145.2222  142.7041  155.2622 C.2     1  UNL1       -0.0042
     12 C         144.2078  142.0171  156.1277 C.2     1  UNL1        0.0006
     13 C         144.0487  140.5273  156.0583 C.2     1  UNL1        0.0111
     14 H         141.8855  136.7012  158.7111 H       1  UNL1        0.1239
     15 C         144.9108  129.1336  155.2888 C.3     1  UNL1        0.1122
     16 N         144.6172  130.5219  155.7749 N.am    1  UNL1       -0.2870
     17 C         143.8450  131.4723  154.9086 C.2     1  UNL1        0.3040
     18 O         143.3665  131.0343  153.5561 O.2     1  UNL1       -0.2526
     19 N         143.5514  132.8606  155.3947 N.am    1  UNL1       -0.2642
     20 C         144.0299  133.2986  156.7471 C.3     1  UNL1        0.0950
     21 C         143.7363  134.6870  157.2333 C.3     1  UNL1        0.0233
     22 C         142.9641  135.6373  156.3670 C.3     1  UNL1        0.0236
     23 C         142.4856  135.1993  155.0144 C.3     1  UNL1        0.0233
     24 C         142.7792  133.8110  154.5283 C.3     1  UNL1        0.0950
     25 H         144.9313  130.8094  156.6626 H       1  UNL1        0.1510
     26 C         140.2631  138.8585  159.4211 C.ar    1  UNL1        0.1318
     27 N         140.4335  138.6860  160.9013 N.ar    1  UNL1       -0.2298
     28 C         139.1260  139.0133  161.5597 C.ar    1  UNL1        0.0996
     29 C         138.1475  139.3880  160.4863 C.ar    1  UNL1        0.0927
     30 N         138.8503  139.2924  159.1646 N.ar    1  UNL1       -0.3386
     31 H         138.4539  139.4812  158.2834 H       1  UNL1        0.1672
     32 C         138.8461  138.9728  163.0328 C.ar    1  UNL1        0.0192
     33 C         139.0601  137.7031  163.8023 C.ar    1  UNL1        0.0015
     34 C         138.7802  137.6627  165.2754 C.ar    1  UNL1        0.0000
     35 C         138.2864  138.8919  165.9790 C.ar    1  UNL1        0.0000
     36 C         138.0724  140.1616  165.2095 C.ar    1  UNL1        0.0000
     37 C         138.3523  140.2021  163.7364 C.ar    1  UNL1        0.0015
@<TRIPOS>BOND
     1    15    16    1
     2    16    17   am
     3    17    18    2
     4    17    19   am
     5    19    20    1
     6    20    21    1
     7    21    22    1
     8    22     1    1
     9     1     2    1
    10     2     3    1
    11     3    26    1
    12    26    27   ar
    13    27    28   ar
    14    28    32    1
    15    32    33   ar
    16    33    34   ar
    17    34    35   ar
    18    35    36   ar
    19    36    37   ar
    20    28    29   ar
    21    29    30   ar
    22     3     4    1
    23     4     5    1
    24     5     6    2
    25     6     7    1
    26     7     8    2
    27     8     9    1
    28     9    10    1
    29    10    11    2
    30    11    12    1
    31    12    13    2
    32    22    23    1
    33    23    24    1
    34    24    19    1
    35     6     1    1
    36    13     8    1
    37    30    26   ar
    38    13     5    1
    39    37    32   ar
    40    16    25    1
    41     2    14    1
    42    30    31    1
@<TRIPOS>MOLECULE
*****
 37 42 0 0 0
SMALL
GASTEIGER

@<TRIPOS>ATOM
      1 C         141.6675  137.7330  157.1381 C.3     1  UNL1        0.0948
      2 N         140.5005  138.4164  156.4893 N.3     1  UNL1       -0.2887
      3 C         139.7862  137.7578  155.3465 C.3     1  UNL1        0.1161
      4 C         140.2389  136.4157  154.8525 C.3     1  UNL1        0.0510
      5 C         141.4059  135.7323  155.5013 C.2     1  UNL1       -0.0044
      6 C         142.1202  136.3909  156.6441 C.2     1  UNL1        0.0689
      7 N         143.2304  135.4823  157.0822 N.2     1  UNL1       -0.2526
      8 C         143.2022  134.2621  156.2102 C.2     1  UNL1        0.0627
      9 C         144.0575  133.0303  156.1796 C.3     1  UNL1        0.0717
     10 C         143.7853  131.9531  155.1720 C.2     1  UNL1       -0.0198
     11 C         142.6578  132.1076  154.1949 C.2     1  UNL1       -0.0042
     12 C         141.8024  133.3394  154.2255 C.2     1  UNL1        0.0006
     13 C         142.0746  134.4166  155.2331 C.2     1  UNL1        0.0111
     14 H         140.8392  139.3152  156.1461 H       1  UNL1        0.1239
     15 C         145.3454  140.3253  164.1740 C.3     1  UNL1        0.1122
     16 N         144.6311  139.6667  163.0312 N.am    1  UNL1       -0.2870
     17 C         144.5248  140.3675  161.7092 C.2     1  UNL1        0.3040
     18 O         145.1328  141.7270  161.5301 O.2     1  UNL1       -0.2526
     19 N         143.8105  139.7089  160.5664 N.am    1  UNL1       -0.2642
     20 C         143.2025  138.3494  160.7456 C.3     1  UNL1        0.0950
     21 C         142.4881  137.6907  159.6028 C.3     1  UNL1        0.0233
     22 C         142.3818  138.3916  158.2809 C.3     1  UNL1        0.0236
     23 C         142.9899  139.7511  158.1018 C.3     1  UNL1        0.0233
     24 C         143.7042  140.4098  159.2445 C.3     1  UNL1        0.0950
     25 H         144.2320  138.7744  163.1487 H       1  UNL1        0.1510
     26 C         138.6191  138.4412  154.6977 C.ar    1  UNL1        0.1318
     27 N         137.3798  138.9206  155.3936 N.ar    1  UNL1       -0.2298
     28 C         136.4812  139.5409  154.3651 C.ar    1  UNL1        0.0996
     29 C         137.1651  139.4448  153.0336 C.ar    1  UNL1        0.0927
     30 N         138.4864  138.7651  153.2391 N.ar    1  UNL1       -0.3386
     31 H         139.1501  138.5665  152.5396 H       1  UNL1        0.1672
     32 C         135.1350  140.1503  154.6229 C.ar    1  UNL1        0.0192
     33 C         134.3849  139.8090  155.8762 C.ar    1  UNL1        0.0015
     34 C         133.0387  140.4183  156.1341 C.ar    1  UNL1        0.0000
     35 C         132.4427  141.3689  155.1386 C.ar    1  UNL1        0.0000
     36 C         133.1928  141.7102  153.8853 C.ar    1  UNL1        0.0000
     37 C         134.5390  141.1009  153.6274 C.ar    1  UNL1        0.0015
@<TRIPOS>BOND
     1    15    16    1
     2    16    17   am
     3    17    18    2
     4    17    19   am
     5    19    20    1
     6    20    21    1
     7    21    22    1
     8    22     1    1
     9     1     2    1
    10     2     3    1
    11     3    26    1
    12    26    27   ar
    13    27    28   ar
    14    28    32    1
    15    32    33   ar
    16    33    34   ar
    17    34    35   ar
    18    35    36   ar
    19    36    37   ar
    20    28    29   ar
    21    29    30   ar
    22     3     4    1
    23     4     5    1
    24     5     6    2
    25     6     7    1
    26     7     8    2
    27     8     9    1
    28     9    10    1
    29    10    11    2
    30    11    12    1
    31    12    13    2
    32    22    23    1
    33    23    24    1
    34    24    19    1
    35     6     1    1
    36    13     8    1
    37    30    26   ar
    38    13     5    1
    39    37    32   ar
    40    16    25    1
    41     2    14    1
    42    30    31    1
@<TRIPOS>MOLECULE
*****
 37 42 0 0 0
SMALL
GASTEIGER

@<TRIPOS>ATOM
      1 C         142.9259  136.9602  155.8068 C.3     1  UNL1        0.0948
      2 N         144.0634  137.9274  155.9501 N.3     1  UNL1       -0.2887
      3 C         143.8408  139.3894  155.6996 C.3     1  UNL1        0.1161
      4 C         142.4806  139.8843  155.3057 C.3     1  UNL1        0.0510
      5 C         141.3431  138.9171  155.1624 C.2     1  UNL1       -0.0044
      6 C         141.5658  137.4550  155.4130 C.2     1  UNL1        0.0689
      7 N         140.2631  136.7439  155.1954 N.2     1  UNL1       -0.2526
      8 C         139.2354  137.7664  154.8104 C.2     1  UNL1        0.0627
      9 C         137.7780  137.6480  154.4758 C.3     1  UNL1        0.0717
     10 C         136.9881  138.8727  154.1208 C.2     1  UNL1       -0.0198
     11 C         137.6556  140.2158  154.1004 C.2     1  UNL1       -0.0042
     12 C         139.1130  140.3343  154.4350 C.2     1  UNL1        0.0006
     13 C         139.9028  139.1095  154.7900 C.2     1  UNL1        0.0111
     14 H         144.7905  137.6249  155.3019 H       1  UNL1        0.1239
     15 C         144.3437  129.1642  158.4457 C.3     1  UNL1        0.1122
     16 N         144.1210  130.6263  158.1951 N.am    1  UNL1       -0.2870
     17 C         143.8166  131.1119  156.8089 C.2     1  UNL1        0.3040
     18 O         143.7348  130.1354  155.6732 O.2     1  UNL1       -0.2526
     19 N         143.5939  132.5739  156.5583 N.am    1  UNL1       -0.2642
     20 C         143.6757  133.5504  157.6940 C.3     1  UNL1        0.0950
     21 C         143.4530  135.0126  157.4435 C.3     1  UNL1        0.0233
     22 C         143.1486  135.4981  156.0574 C.3     1  UNL1        0.0236
     23 C         143.0668  134.5215  154.9217 C.3     1  UNL1        0.0233
     24 C         143.2894  133.0595  155.1721 C.3     1  UNL1        0.0950
     25 H         144.1747  131.2672  158.9405 H       1  UNL1        0.1510
     26 C         144.9783  140.3567  155.8429 C.ar    1  UNL1        0.1318
     27 N         146.1218  140.5209  154.8862 N.ar    1  UNL1       -0.2298
     28 C         147.0222  141.5952  155.4200 C.ar    1  UNL1        0.0996
     29 C         146.4352  142.0950  156.7067 C.ar    1  UNL1        0.0927
     30 N         145.1719  141.3296  156.9681 N.ar    1  UNL1       -0.3386
     31 H         144.5748  141.4454  157.7422 H       1  UNL1        0.1672
     32 C         148.2876  142.0840  154.7796 C.ar    1  UNL1        0.0192
     33 C         148.2256  143.0867  153.6658 C.ar    1  UNL1        0.0015
     34 C         149.4909  143.5755  153.0254 C.ar    1  UNL1        0.0000
     35 C         150.8181  143.0614  153.4988 C.ar    1  UNL1        0.0000
     36 C         150.8801  142.0586  154.6126 C.ar    1  UNL1        0.0000
     37 C         149.6148  141.5699  155.2530 C.ar    1  UNL1        0.0015
@<TRIPOS>BOND
     1    15    16    1
     2    16    17   am
     3    17    18    2
     4    17    19   am
     5    19    20    1
     6    20    21    1
     7    21    22    1
     8    22     1    1
     9     1     2    1
    10     2     3    1
    11     3    26    1
    12    26    27   ar
    13    27    28   ar
    14    28    32    1
    15    32    33   ar
    16    33    34   ar
    17    34    35   ar
    18    35    36   ar
    19    36    37   ar
    20    28    29   ar
    21    29    30   ar
    22     3     4    1
    23     4     5    1
    24     5     6    2
    25     6     7    1
    26     7     8    2
    27     8     9    1
    28     9    10    1
    29    10    11    2
    30    11    12    1
    31    12    13    2
    32    22    23    1
    33    23    24    1
    34    24    19    1
    35     6     1    1
    36    13     8    1
    37    30    26   ar
    38    13     5    1
    39    37    32   ar
    40    16    25    1
    41     2    14    1
    42    30    31    1
@<TRIPOS>MOLECULE
*****
 37 42 0 0 0
SMALL
GASTEIGER

@<TRIPOS>ATOM
      1 C         141.4150  140.0644  160.1131 C.3     1  UNL1        0.0948
      2 N         141.9031  138.8351  159.4058 N.3     1  UNL1       -0.2887
      3 C         142.4678  138.9415  158.0202 C.3     1  UNL1        0.1161
      4 C         142.5443  140.2772  157.3420 C.3     1  UNL1        0.0510
      5 C         142.0562  141.5066  158.0493 C.2     1  UNL1       -0.0044
      6 C         141.4915  141.4002  159.4349 C.2     1  UNL1        0.0689
      7 N         141.0910  142.7758  159.8791 N.2     1  UNL1       -0.2526
      8 C         141.4082  143.7324  158.7680 C.2     1  UNL1        0.0627
      9 C         141.2309  145.2163  158.6399 C.3     1  UNL1        0.0717
     10 C         141.6501  145.9158  157.3810 C.2     1  UNL1       -0.0198
     11 C         142.2466  145.1313  156.2502 C.2     1  UNL1       -0.0042
     12 C         142.4239  143.6474  156.3782 C.2     1  UNL1        0.0006
     13 C         142.0047  142.9479  157.6372 C.2     1  UNL1        0.0111
     14 H         141.1128  138.1923  159.3531 H       1  UNL1        0.1239
     15 C         139.4112  139.9655  168.2202 C.3     1  UNL1        0.1122
     16 N         139.9759  140.0719  166.8347 N.am    1  UNL1       -0.2870
     17 C         139.1562  139.6389  165.6554 C.2     1  UNL1        0.3040
     18 O         137.7718  139.0995  165.8617 O.2     1  UNL1       -0.2526
     19 N         139.7208  139.7452  164.2698 N.am    1  UNL1       -0.2642
     20 C         141.1052  140.2846  164.0635 C.3     1  UNL1        0.0950
     21 C         141.6699  140.3910  162.6779 C.3     1  UNL1        0.0233
     22 C         140.8503  139.9581  161.4987 C.3     1  UNL1        0.0236
     23 C         139.4659  139.4186  161.7051 C.3     1  UNL1        0.0233
     24 C         138.9012  139.3122  163.0906 C.3     1  UNL1        0.0950
     25 H         140.8845  140.4259  166.6992 H       1  UNL1        0.1510
     26 C         142.9559  137.7120  157.3128 C.ar    1  UNL1        0.1318
     27 N         142.7251  136.2949  157.7469 N.ar    1  UNL1       -0.2298
     28 C         143.3871  135.3910  156.7495 C.ar    1  UNL1        0.0996
     29 C         144.0270  136.2495  155.6991 C.ar    1  UNL1        0.0927
     30 N         143.7605  137.6840  156.0472 N.ar    1  UNL1       -0.3386
     31 H         144.0609  138.4692  155.5349 H       1  UNL1        0.1672
     32 C         143.4059  133.8918  156.7947 C.ar    1  UNL1        0.0192
     33 C         144.4684  133.1783  157.5771 C.ar    1  UNL1        0.0015
     34 C         144.4872  131.6791  157.6223 C.ar    1  UNL1        0.0000
     35 C         143.4435  130.8934  156.8852 C.ar    1  UNL1        0.0000
     36 C         142.3810  131.6069  156.1029 C.ar    1  UNL1        0.0000
     37 C         142.3622  133.1061  156.0576 C.ar    1  UNL1        0.0015
@<TRIPOS>BOND
     1    15    16    1
     2    16    17   am
     3    17    18    2
     4    17    19   am
     5    19    20    1
     6    20    21    1
     7    21    22    1
     8    22     1    1
     9     1     2    1
    10     2     3    1
    11     3    26    1
    12    26    27   ar
    13    27    28   ar
    14    28    32    1
    15    32    33   ar
    16    33    34   ar
    17    34    35   ar
    18    35    36   ar
    19    36    37   ar
    20    28    29   ar
    21    29    30   ar
    22     3     4    1
    23     4     5    1
    24     5     6    2
    25     6     7    1
    26     7     8    2
    27     8     9    1
    28     9    10    1
    29    10    11    2
    30    11    12    1
    31    12    13    2
    32    22    23    1
    33    23    24    1
    34    24    19    1
    35     6     1    1
    36    13     8    1
    37    30    26   ar
    38    13     5    1
    39    37    32   ar
    40    16    25    1
    41     2    14    1
    42    30    31    1
@<TRIPOS>MOLECULE
*****
 37 42 0 0 0
SMALL
GASTEIGER

@<TRIPOS>ATOM
      1 C         140.7254  139.6838  159.1751 C.3     1  UNL1        0.0948
      2 N         140.3685  139.4149  160.6070 N.3     1  UNL1       -0.2887
      3 C         140.0043  140.5517  161.5153 C.3     1  UNL1        0.1161
      4 C         139.9970  141.9573  160.9918 C.3     1  UNL1        0.0510
      5 C         140.3539  142.2262  159.5599 C.2     1  UNL1       -0.0044
      6 C         140.7181  141.0895  158.6516 C.2     1  UNL1        0.0689
      7 N         141.0225  141.6577  157.2972 N.2     1  UNL1       -0.2526
      8 C         140.8465  143.1457  157.3685 C.2     1  UNL1        0.0627
      9 C         141.0092  144.2260  156.3407 C.3     1  UNL1        0.0717
     10 C         140.7586  145.6576  156.7113 C.2     1  UNL1       -0.0198
     11 C         140.3453  146.0090  158.1098 C.2     1  UNL1       -0.0042
     12 C         140.1827  144.9287  159.1376 C.2     1  UNL1        0.0006
     13 C         140.4333  143.4970  158.7670 C.2     1  UNL1        0.0111
     14 H         141.1715  138.9474  161.0278 H       1  UNL1        0.1239
     15 C         141.5646  133.5149  153.6082 C.3     1  UNL1        0.1122
     16 N         141.2004  134.6517  154.5166 N.am    1  UNL1       -0.2870
     17 C         142.1822  135.1367  155.5418 C.2     1  UNL1        0.3040
     18 O         143.5281  134.4850  155.6586 O.2     1  UNL1       -0.2526
     19 N         141.8180  136.2735  156.4501 N.am    1  UNL1       -0.2642
     20 C         140.4721  136.9252  156.3333 C.3     1  UNL1        0.0950
     21 C         140.1078  138.0620  157.2417 C.3     1  UNL1        0.0233
     22 C         141.0895  138.5470  158.2668 C.3     1  UNL1        0.0236
     23 C         142.4355  137.8952  158.3835 C.3     1  UNL1        0.0233
     24 C         142.7998  136.7585  157.4753 C.3     1  UNL1        0.0950
     25 H         140.3170  135.0794  154.4400 H       1  UNL1        0.1510
     26 C         139.6474  140.2828  162.9473 C.ar    1  UNL1        0.1318
     27 N         140.1362  141.0539  164.1374 N.ar    1  UNL1       -0.2298
     28 C         139.5300  140.4433  165.3662 C.ar    1  UNL1        0.0996
     29 C         138.6666  139.2949  164.9354 C.ar    1  UNL1        0.0927
     30 N         138.7391  139.1957  163.4404 N.ar    1  UNL1       -0.3386
     31 H         138.2726  138.5333  162.8811 H       1  UNL1        0.1672
     32 C         139.7488  140.9009  166.7779 C.ar    1  UNL1        0.0192
     33 C         139.3554  140.0153  167.9228 C.ar    1  UNL1        0.0015
     34 C         139.5742  140.4728  169.3344 C.ar    1  UNL1        0.0000
     35 C         140.1864  141.8159  169.6011 C.ar    1  UNL1        0.0000
     36 C         140.5798  142.7016  168.4562 C.ar    1  UNL1        0.0000
     37 C         140.3610  142.2440  167.0445 C.ar    1  UNL1        0.0015
@<TRIPOS>BOND
     1    15    16    1
     2    16    17   am
     3    17    18    2
     4    17    19   am
     5    19    20    1
     6    20    21    1
     7    21    22    1
     8    22     1    1
     9     1     2    1
    10     2     3    1
    11     3    26    1
    12    26    27   ar
    13    27    28   ar
    14    28    32    1
    15    32    33   ar
    16    33    34   ar
    17    34    35   ar
    18    35    36   ar
    19    36    37   ar
    20    28    29   ar
    21    29    30   ar
    22     3     4    1
    23     4     5    1
    24     5     6    2
    25     6     7    1
    26     7     8    2
    27     8     9    1
    28     9    10    1
    29    10    11    2
    30    11    12    1
    31    12    13    2
    32    22    23    1
    33    23    24    1
    34    24    19    1
    35     6     1    1
    36    13     8    1
    37    30    26   ar
    38    13     5    1
    39    37    32   ar
    40    16    25    1
    41     2    14    1
    42    30    31    1
@<TRIPOS>MOLECULE
*****
 37 42 0 0 0
SMALL
GASTEIGER

@<TRIPOS>ATOM
      1 C         142.2638  138.0819  155.3584 C.3     1  UNL1        0.0948
      2 N         140.9181  138.5919  154.9353 N.3     1  UNL1       -0.2887
      3 C         139.8059  137.6266  154.6503 C.3     1  UNL1        0.1161
      4 C         140.0394  136.1513  154.7884 C.3     1  UNL1        0.0510
      5 C         141.3851  135.6413  155.2115 C.2     1  UNL1       -0.0044
      6 C         142.4973  136.6066  155.4965 C.2     1  UNL1        0.0689
      7 N         143.7081  135.8148  155.8927 N.2     1  UNL1       -0.2526
      8 C         143.3442  134.3601  155.8525 C.2     1  UNL1        0.0627
      9 C         144.1347  133.1193  156.1449 C.3     1  UNL1        0.0717
     10 C         143.4895  131.7714  156.0163 C.2     1  UNL1       -0.0198
     11 C         142.0538  131.6642  155.5953 C.2     1  UNL1       -0.0042
     12 C         141.2633  132.9049  155.3029 C.2     1  UNL1        0.0006
     13 C         141.9085  134.2529  155.4315 C.2     1  UNL1        0.0111
     14 H         141.0631  139.1339  154.0835 H       1  UNL1        0.1239
     15 C         147.8403  143.6753  158.0724 C.3     1  UNL1        0.1122
     16 N         146.7281  142.7100  157.7874 N.am    1  UNL1       -0.2870
     17 C         146.7126  141.9431  156.4984 C.2     1  UNL1        0.3040
     18 O         147.8092  142.1414  155.4944 O.2     1  UNL1       -0.2526
     19 N         145.6004  140.9778  156.2133 N.am    1  UNL1       -0.2642
     20 C         144.5038  140.7794  157.2173 C.3     1  UNL1        0.0950
     21 C         143.3915  139.8141  156.9324 C.3     1  UNL1        0.0233
     22 C         143.3759  139.0472  155.6434 C.3     1  UNL1        0.0236
     23 C         144.4727  139.2455  154.6394 C.3     1  UNL1        0.0233
     24 C         145.5848  140.2108  154.9243 C.3     1  UNL1        0.0950
     25 H         146.0084  142.5799  158.4463 H       1  UNL1        0.1510
     26 C         138.4601  138.1366  154.2272 C.ar    1  UNL1        0.1318
     27 N         137.4208  138.7346  155.1283 N.ar    1  UNL1       -0.2298
     28 C         136.2358  139.1057  154.2868 C.ar    1  UNL1        0.0996
     29 C         136.5428  138.7370  152.8657 C.ar    1  UNL1        0.0927
     30 N         137.9176  138.1380  152.8288 N.ar    1  UNL1       -0.3386
     31 H         138.3822  137.8044  152.0275 H       1  UNL1        0.1672
     32 C         134.9666  139.7350  154.7800 C.ar    1  UNL1        0.0192
     33 C         134.4101  140.9433  154.0869 C.ar    1  UNL1        0.0015
     34 C         133.1409  141.5727  154.5799 C.ar    1  UNL1        0.0000
     35 C         132.4283  140.9937  155.7661 C.ar    1  UNL1        0.0000
     36 C         132.9849  139.7855  156.4592 C.ar    1  UNL1        0.0000
     37 C         134.2540  139.1561  155.9661 C.ar    1  UNL1        0.0015
@<TRIPOS>BOND
     1    15    16    1
     2    16    17   am
     3    17    18    2
     4    17    19   am
     5    19    20    1
     6    20    21    1
     7    21    22    1
     8    22     1    1
     9     1     2    1
    10     2     3    1
    11     3    26    1
    12    26    27   ar
    13    27    28   ar
    14    28    32    1
    15    32    33   ar
    16    33    34   ar
    17    34    35   ar
    18    35    36   ar
    19    36    37   ar
    20    28    29   ar
    21    29    30   ar
    22     3     4    1
    23     4     5    1
    24     5     6    2
    25     6     7    1
    26     7     8    2
    27     8     9    1
    28     9    10    1
    29    10    11    2
    30    11    12    1
    31    12    13    2
    32    22    23    1
    33    23    24    1
    34    24    19    1
    35     6     1    1
    36    13     8    1
    37    30    26   ar
    38    13     5    1
    39    37    32   ar
    40    16    25    1
    41     2    14    1
    42    30    31    1
