@<TRIPOS>MOLECULE
*****
 37 40 0 0 0
SMALL
GASTEIGER

@<TRIPOS>ATOM
      1 C         142.0580  142.4671  163.1640 C.ar    1  UNL1        0.2046
      2 N         141.4357  141.1250  163.4122 N.ar    1  UNL1       -0.1998
      3 C         141.6111  140.4510  164.7408 C.ar    1  UNL1        0.1389
      4 N         140.9888  139.1090  164.9889 N.pl3   1  UNL1       -0.3420
      5 C         142.4089  141.1192  165.8211 C.ar    1  UNL1        0.1169
      6 C         143.0312  142.4613  165.5729 C.ar    1  UNL1        0.2716
      7 O         143.8290  143.1294  166.6533 O.2     1  UNL1       -0.2663
      8 N         142.8558  143.1352  164.2444 N.ar    1  UNL1       -0.2662
      9 C         143.4781  144.4773  163.9962 C.3     1  UNL1        0.1363
     10 H         140.4652  138.6705  164.2799 H       1  UNL1        0.1437
     11 H         141.1040  138.6667  165.8609 H       1  UNL1        0.1437
     12 C         139.7433  146.7662  156.5935 C.3     1  UNL1        0.0029
     13 C         140.6289  145.8455  157.3796 C.3     1  UNL1        0.0340
     14 C         140.4048  145.4018  158.7949 C.3     1  UNL1        0.0042
     15 C         141.5316  144.4890  159.1785 C.3     1  UNL1        0.0190
     16 C         140.5236  144.7051  160.2680 C.3     1  UNL1        0.0229
     17 C         140.6991  144.0311  161.5965 C.3     1  UNL1        0.0936
     18 N         141.8825  143.1410  161.8355 N.pl3   1  UNL1       -0.2794
     19 C         142.8905  142.9249  160.7459 C.3     1  UNL1        0.0936
     20 C         142.7151  143.5989  159.4174 C.3     1  UNL1        0.0229
     21 C         142.4521  144.3685  158.0002 C.3     1  UNL1        0.0838
     22 N         143.7096  143.5528  157.9437 N.3     1  UNL1       -0.3200
     23 C         141.8942  145.2068  156.8885 C.3     1  UNL1        0.1749
     24 F         142.4960  145.3766  155.5251 F       1  UNL1       -0.2359
     25 H         143.8509  143.0835  158.8383 H       1  UNL1        0.1189
     26 H         144.5031  144.1642  157.7514 H       1  UNL1        0.1189
     27 S         142.5844  140.4453  167.1497 S.3     1  UNL1       -0.0780
     28 C         141.5153  140.5596  168.1956 C.ar    1  UNL1        0.0514
     29 C         140.1450  140.0101  167.9307 C.ar    1  UNL1        0.0095
     30 C         139.0759  140.1245  168.9767 C.ar    1  UNL1        0.0212
     31 C         139.3772  140.7883  170.2875 C.ar    1  UNL1        0.0988
     32 N         140.7475  141.3379  170.5525 N.ar    1  UNL1       -0.2394
     33 C         141.8166  141.2235  169.5066 C.ar    1  UNL1        0.1585
     34 C         143.1869  141.7730  169.7715 C.3     1  UNL1        0.4353
     35 F         144.5573  142.3226  170.0364 F       1  UNL1       -0.1644
     36 F         142.7327  143.1270  169.3127 F       1  UNL1       -0.1644
     37 F         143.6412  140.4191  170.2303 F       1  UNL1       -0.1644
@<TRIPOS>BOND
     1    13    12    1
     2    13    14    1
     3    14    15    1
     4    15    16    1
     5    16    17    1
     6    17    18    1
     7    18     1    1
     8     1     2   ar
     9     2     3   ar
    10     3     4    1
    11     3     5   ar
    12     5    27    1
    13    27    28    1
    14    28    29   ar
    15    29    30   ar
    16    30    31   ar
    17    31    32   ar
    18    32    33   ar
    19    33    34    1
    20    34    35    1
    21    34    36    1
    22    34    37    1
    23     5     6   ar
    24     6     7    2
    25     6     8   ar
    26     8     9    1
    27    18    19    1
    28    19    20    1
    29    15    21    1
    30    21    22    1
    31    21    23    1
    32    23    24    1
    33    23    13    1
    34    20    15    1
    35     8     1   ar
    36    33    28   ar
    37     4    10    1
    38     4    11    1
    39    22    25    1
    40    22    26    1
@<TRIPOS>MOLECULE
*****
 37 40 0 0 0
SMALL
GASTEIGER

@<TRIPOS>ATOM
      1 C         142.0390  142.6378  163.5771 C.ar    1  UNL1        0.2046
      2 N         141.1553  141.5004  163.9960 N.ar    1  UNL1       -0.1998
      3 C         141.2877  140.9148  165.3707 C.ar    1  UNL1        0.1389
      4 N         140.4040  139.7774  165.7896 N.pl3   1  UNL1       -0.3420
      5 C         142.3037  141.4665  166.3263 C.ar    1  UNL1        0.1169
      6 C         143.1874  142.6039  165.9073 C.ar    1  UNL1        0.2716
      7 O         144.2035  143.1556  166.8629 O.2     1  UNL1       -0.2663
      8 N         143.0550  143.1895  164.5327 N.ar    1  UNL1       -0.2662
      9 C         143.9387  144.3269  164.1137 C.3     1  UNL1        0.1363
     10 H         139.7372  139.4153  165.1624 H       1  UNL1        0.1437
     11 H         140.4909  139.3930  166.6918 H       1  UNL1        0.1437
     12 C         142.5271  144.7948  155.6954 C.3     1  UNL1        0.0029
     13 C         141.9880  144.8478  157.0941 C.3     1  UNL1        0.0340
     14 C         142.4536  144.0138  158.2508 C.3     1  UNL1        0.0042
     15 C         141.6419  144.3947  159.4533 C.3     1  UNL1        0.0190
     16 C         142.6602  143.3257  159.7182 C.3     1  UNL1        0.0229
     17 C         142.7926  142.7401  161.0928 C.3     1  UNL1        0.0936
     18 N         141.9066  143.2235  162.2025 N.pl3   1  UNL1       -0.2794
     19 C         140.8883  144.2925  161.9376 C.3     1  UNL1        0.0936
     20 C         140.7560  144.8781  160.5630 C.3     1  UNL1        0.0229
     21 C         140.6746  145.4641  159.0399 C.3     1  UNL1        0.0838
     22 N         139.6699  146.1355  159.9285 N.3     1  UNL1       -0.3200
     23 C         140.8885  145.7441  157.5819 C.3     1  UNL1        0.1749
     24 F         140.1352  146.7447  156.7565 F       1  UNL1       -0.2359
     25 H         139.7407  145.7530  160.8714 H       1  UNL1        0.1189
     26 H         138.7312  145.9718  159.5648 H       1  UNL1        0.1189
     27 S         142.4361  140.8809  167.7009 S.3     1  UNL1       -0.0780
     28 C         141.7111  141.5062  168.8555 C.ar    1  UNL1        0.0514
     29 C         140.9253  142.7678  168.6531 C.ar    1  UNL1        0.0095
     30 C         140.2002  143.3931  169.8079 C.ar    1  UNL1        0.0212
     31 C         140.2608  142.7568  171.1648 C.ar    1  UNL1        0.0988
     32 N         141.0466  141.4952  171.3671 N.ar    1  UNL1       -0.2394
     33 C         141.7716  140.8699  170.2125 C.ar    1  UNL1        0.1585
     34 C         142.5574  139.6082  170.4149 C.3     1  UNL1        0.4353
     35 F         143.3431  138.3466  170.6172 F       1  UNL1       -0.1644
     36 F         141.3122  138.7989  170.2039 F       1  UNL1       -0.1644
     37 F         143.8025  140.4175  170.6259 F       1  UNL1       -0.1644
@<TRIPOS>BOND
     1    13    12    1
     2    13    14    1
     3    14    15    1
     4    15    16    1
     5    16    17    1
     6    17    18    1
     7    18     1    1
     8     1     2   ar
     9     2     3   ar
    10     3     4    1
    11     3     5   ar
    12     5    27    1
    13    27    28    1
    14    28    29   ar
    15    29    30   ar
    16    30    31   ar
    17    31    32   ar
    18    32    33   ar
    19    33    34    1
    20    34    35    1
    21    34    36    1
    22    34    37    1
    23     5     6   ar
    24     6     7    2
    25     6     8   ar
    26     8     9    1
    27    18    19    1
    28    19    20    1
    29    15    21    1
    30    21    22    1
    31    21    23    1
    32    23    24    1
    33    23    13    1
    34    20    15    1
    35     8     1   ar
    36    33    28   ar
    37     4    10    1
    38     4    11    1
    39    22    25    1
    40    22    26    1
@<TRIPOS>MOLECULE
*****
 37 40 0 0 0
SMALL
GASTEIGER

@<TRIPOS>ATOM
      1 C         140.0211  143.6678  159.4389 C.ar    1  UNL1        0.2046
      2 N         139.8192  144.8814  160.2971 N.ar    1  UNL1       -0.1998
      3 C         140.6344  145.0629  161.5432 C.ar    1  UNL1        0.1389
      4 N         140.4324  146.2764  162.4013 N.pl3   1  UNL1       -0.3420
      5 C         141.6515  144.0309  161.9310 C.ar    1  UNL1        0.1169
      6 C         141.8535  142.8173  161.0727 C.ar    1  UNL1        0.2716
      7 O         142.8706  141.7853  161.4605 O.2     1  UNL1       -0.2663
      8 N         141.0383  142.6358  159.8267 N.ar    1  UNL1       -0.2662
      9 C         141.2402  141.4222  158.9685 C.3     1  UNL1        0.1363
     10 H         139.7648  146.9538  162.1468 H       1  UNL1        0.1437
     11 H         140.9675  146.3956  163.2191 H       1  UNL1        0.1437
     12 C         134.7600  141.5654  153.5302 C.3     1  UNL1        0.0029
     13 C         135.9067  142.3236  154.1304 C.3     1  UNL1        0.0340
     14 C         136.4259  142.1749  155.5299 C.3     1  UNL1        0.0042
     15 C         137.5756  143.1231  155.7010 C.3     1  UNL1        0.0190
     16 C         137.2654  142.3132  156.9248 C.3     1  UNL1        0.0229
     17 C         138.0806  142.4948  158.1707 C.3     1  UNL1        0.0936
     18 N         139.2060  143.4863  158.1929 N.pl3   1  UNL1       -0.2794
     19 C         139.5161  144.2962  156.9691 C.3     1  UNL1        0.0936
     20 C         138.7010  144.1146  155.7231 C.3     1  UNL1        0.0229
     21 C         137.7670  143.8578  154.4072 C.3     1  UNL1        0.0838
     22 N         138.8071  144.9030  154.1324 N.3     1  UNL1       -0.3200
     23 C         136.7356  143.3637  153.4366 C.3     1  UNL1        0.1749
     24 F         136.5633  143.8281  152.0208 F       1  UNL1       -0.2359
     25 H         139.3757  145.0446  154.9673 H       1  UNL1        0.1189
     26 H         138.3502  145.7792  153.8797 H       1  UNL1        0.1189
     27 S         142.4667  144.2124  163.1769 S.3     1  UNL1       -0.0780
     28 C         142.0185  143.5864  164.4642 C.ar    1  UNL1        0.0514
     29 C         140.6012  143.7538  164.9261 C.ar    1  UNL1        0.0095
     30 C         140.1530  143.1277  166.2134 C.ar    1  UNL1        0.0212
     31 C         141.1220  142.3343  167.0388 C.ar    1  UNL1        0.0988
     32 N         142.5393  142.1669  166.5770 N.ar    1  UNL1       -0.2394
     33 C         142.9875  142.7929  165.2897 C.ar    1  UNL1        0.1585
     34 C         144.4048  142.6255  164.8278 C.3     1  UNL1        0.4353
     35 F         145.8221  142.4580  164.3660 F       1  UNL1       -0.1644
     36 F         144.0383  141.3261  164.1741 F       1  UNL1       -0.1644
     37 F         144.7713  143.9248  165.4815 F       1  UNL1       -0.1644
@<TRIPOS>BOND
     1    13    12    1
     2    13    14    1
     3    14    15    1
     4    15    16    1
     5    16    17    1
     6    17    18    1
     7    18     1    1
     8     1     2   ar
     9     2     3   ar
    10     3     4    1
    11     3     5   ar
    12     5    27    1
    13    27    28    1
    14    28    29   ar
    15    29    30   ar
    16    30    31   ar
    17    31    32   ar
    18    32    33   ar
    19    33    34    1
    20    34    35    1
    21    34    36    1
    22    34    37    1
    23     5     6   ar
    24     6     7    2
    25     6     8   ar
    26     8     9    1
    27    18    19    1
    28    19    20    1
    29    15    21    1
    30    21    22    1
    31    21    23    1
    32    23    24    1
    33    23    13    1
    34    20    15    1
    35     8     1   ar
    36    33    28   ar
    37     4    10    1
    38     4    11    1
    39    22    25    1
    40    22    26    1
@<TRIPOS>MOLECULE
*****
 37 40 0 0 0
SMALL
GASTEIGER

@<TRIPOS>ATOM
      1 C         140.9443  142.6975  163.9358 C.ar    1  UNL1        0.2046
      2 N         139.5249  142.8289  163.4688 N.ar    1  UNL1       -0.1998
      3 C         139.2282  143.4514  162.1367 C.ar    1  UNL1        0.1389
      4 N         137.8088  143.5828  161.6697 N.pl3   1  UNL1       -0.3420
      5 C         140.3508  143.9425  161.2715 C.ar    1  UNL1        0.1169
      6 C         141.7703  143.8111  161.7385 C.ar    1  UNL1        0.2716
      7 O         142.8929  144.3021  160.8734 O.2     1  UNL1       -0.2663
      8 N         142.0670  143.1886  163.0706 N.ar    1  UNL1       -0.2662
      9 C         143.4864  143.0572  163.5376 C.3     1  UNL1        0.1363
     10 H         137.0720  143.2605  162.2376 H       1  UNL1        0.1437
     11 H         137.6140  143.9913  160.7954 H       1  UNL1        0.1437
     12 C         143.0478  138.0136  170.3114 C.3     1  UNL1        0.0029
     13 C         142.5287  139.2493  169.6380 C.3     1  UNL1        0.0340
     14 C         142.3931  139.4565  168.1585 C.3     1  UNL1        0.0042
     15 C         141.8346  140.8301  167.9320 C.3     1  UNL1        0.0190
     16 C         142.0974  140.0626  166.6703 C.3     1  UNL1        0.0229
     17 C         141.8006  140.6851  165.3383 C.3     1  UNL1        0.0936
     18 N         141.2411  142.0751  165.2679 N.pl3   1  UNL1       -0.2794
     19 C         140.9782  142.8425  166.5296 C.3     1  UNL1        0.0936
     20 C         141.2750  142.2200  167.8616 C.3     1  UNL1        0.0229
     21 C         141.6249  141.4719  169.2715 C.3     1  UNL1        0.0838
     22 N         141.0816  142.8488  169.5140 N.3     1  UNL1       -0.3200
     23 C         142.0538  140.4950  170.3259 C.3     1  UNL1        0.1749
     24 F         142.0148  140.7235  171.8078 F       1  UNL1       -0.2359
     25 H         140.8716  143.2937  168.6205 H       1  UNL1        0.1189
     26 H         141.7745  143.4042  170.0158 H       1  UNL1        0.1189
     27 S         140.0541  144.5649  159.9395 S.3     1  UNL1       -0.0780
     28 C         140.0336  143.7161  158.7029 C.ar    1  UNL1        0.0514
     29 C         139.1664  142.4935  158.6467 C.ar    1  UNL1        0.0095
     30 C         139.1459  141.6447  157.4101 C.ar    1  UNL1        0.0212
     31 C         139.9927  142.0185  156.2298 C.ar    1  UNL1        0.0988
     32 N         140.8599  143.2411  156.2860 N.ar    1  UNL1       -0.2394
     33 C         140.8804  144.0899  157.5225 C.ar    1  UNL1        0.1585
     34 C         141.7477  145.3125  157.5787 C.3     1  UNL1        0.4353
     35 F         142.6149  146.5350  157.6349 F       1  UNL1       -0.1644
     36 F         142.9324  144.4565  157.9161 F       1  UNL1       -0.1644
     37 F         140.5629  146.1684  157.2413 F       1  UNL1       -0.1644
@<TRIPOS>BOND
     1    13    12    1
     2    13    14    1
     3    14    15    1
     4    15    16    1
     5    16    17    1
     6    17    18    1
     7    18     1    1
     8     1     2   ar
     9     2     3   ar
    10     3     4    1
    11     3     5   ar
    12     5    27    1
    13    27    28    1
    14    28    29   ar
    15    29    30   ar
    16    30    31   ar
    17    31    32   ar
    18    32    33   ar
    19    33    34    1
    20    34    35    1
    21    34    36    1
    22    34    37    1
    23     5     6   ar
    24     6     7    2
    25     6     8   ar
    26     8     9    1
    27    18    19    1
    28    19    20    1
    29    15    21    1
    30    21    22    1
    31    21    23    1
    32    23    24    1
    33    23    13    1
    34    20    15    1
    35     8     1   ar
    36    33    28   ar
    37     4    10    1
    38     4    11    1
    39    22    25    1
    40    22    26    1
@<TRIPOS>MOLECULE
*****
 37 40 0 0 0
SMALL
GASTEIGER

@<TRIPOS>ATOM
      1 C         141.0995  143.2697  162.5471 C.ar    1  UNL1        0.2046
      2 N         142.2350  142.3590  162.9093 N.ar    1  UNL1       -0.1998
      3 C         142.4887  142.0116  164.3464 C.ar    1  UNL1        0.1389
      4 N         143.6242  141.1009  164.7086 N.pl3   1  UNL1       -0.3420
      5 C         141.6069  142.5749  165.4211 C.ar    1  UNL1        0.1169
      6 C         140.4713  143.4856  165.0588 C.ar    1  UNL1        0.2716
      7 O         139.5895  144.0489  166.1336 O.2     1  UNL1       -0.2663
      8 N         140.2176  143.8330  163.6218 N.ar    1  UNL1       -0.2662
      9 C         139.0821  144.7437  163.2595 C.3     1  UNL1        0.1363
     10 H         144.2030  140.7312  164.0032 H       1  UNL1        0.1437
     11 H         143.7907  140.8729  165.6517 H       1  UNL1        0.1437
     12 C         138.5412  144.0246  154.8077 C.3     1  UNL1        0.0029
     13 C         139.3956  144.3395  155.9997 C.3     1  UNL1        0.0340
     14 C         139.2957  143.6958  157.3509 C.3     1  UNL1        0.0042
     15 C         140.3382  144.3118  158.2361 C.3     1  UNL1        0.0190
     16 C         139.5088  143.2601  158.9112 C.3     1  UNL1        0.0229
     17 C         139.7625  142.9127  160.3482 C.3     1  UNL1        0.0936
     18 N         140.8457  143.6171  161.1101 N.pl3   1  UNL1       -0.2794
     19 C         141.6752  144.6688  160.4350 C.3     1  UNL1        0.0936
     20 C         141.4215  145.0162  158.9980 C.3     1  UNL1        0.0229
     21 C         141.0825  145.3363  157.4320 C.3     1  UNL1        0.0838
     22 N         142.2112  146.1932  157.9237 N.3     1  UNL1       -0.3200
     23 C         140.5000  145.3534  156.0498 C.3     1  UNL1        0.1749
     24 F         140.9438  146.2304  154.9168 F       1  UNL1       -0.2359
     25 H         142.4029  145.9747  158.9014 H       1  UNL1        0.1189
     26 H         141.9533  147.1765  157.8393 H       1  UNL1        0.1189
     27 S         141.8605  142.2275  166.8581 S.3     1  UNL1       -0.0780
     28 C         140.8226  141.4826  167.6441 C.ar    1  UNL1        0.0514
     29 C         140.0793  140.3426  167.0134 C.ar    1  UNL1        0.0095
     30 C         139.0413  139.5977  167.7995 C.ar    1  UNL1        0.0212
     31 C         138.7467  139.9929  169.2161 C.ar    1  UNL1        0.0988
     32 N         139.4901  141.1329  169.8468 N.ar    1  UNL1       -0.2394
     33 C         140.5280  141.8778  169.0608 C.ar    1  UNL1        0.1585
     34 C         141.2713  143.0178  169.6915 C.3     1  UNL1        0.4353
     35 F         142.0147  144.1578  170.3222 F       1  UNL1       -0.1644
     36 F         140.2108  143.9691  169.2221 F       1  UNL1       -0.1644
     37 F         142.3319  142.0666  170.1610 F       1  UNL1       -0.1644
@<TRIPOS>BOND
     1    13    12    1
     2    13    14    1
     3    14    15    1
     4    15    16    1
     5    16    17    1
     6    17    18    1
     7    18     1    1
     8     1     2   ar
     9     2     3   ar
    10     3     4    1
    11     3     5   ar
    12     5    27    1
    13    27    28    1
    14    28    29   ar
    15    29    30   ar
    16    30    31   ar
    17    31    32   ar
    18    32    33   ar
    19    33    34    1
    20    34    35    1
    21    34    36    1
    22    34    37    1
    23     5     6   ar
    24     6     7    2
    25     6     8   ar
    26     8     9    1
    27    18    19    1
    28    19    20    1
    29    15    21    1
    30    21    22    1
    31    21    23    1
    32    23    24    1
    33    23    13    1
    34    20    15    1
    35     8     1   ar
    36    33    28   ar
    37     4    10    1
    38     4    11    1
    39    22    25    1
    40    22    26    1
@<TRIPOS>MOLECULE
*****
 37 40 0 0 0
SMALL
GASTEIGER

@<TRIPOS>ATOM
      1 C         142.2578  142.0886  162.9310 C.ar    1  UNL1        0.2046
      2 N         140.8245  141.7902  163.2573 N.ar    1  UNL1       -0.1998
      3 C         140.3446  141.8763  164.6760 C.ar    1  UNL1        0.1389
      4 N         138.9113  141.5779  165.0023 N.pl3   1  UNL1       -0.3420
      5 C         141.2982  142.2608  165.7682 C.ar    1  UNL1        0.1169
      6 C         142.7316  142.5592  165.4417 C.ar    1  UNL1        0.2716
      7 O         143.6851  142.9437  166.5340 O.2     1  UNL1       -0.2663
      8 N         143.2113  142.4731  164.0232 N.ar    1  UNL1       -0.2662
      9 C         144.6447  142.7715  163.6968 C.3     1  UNL1        0.1363
     10 H         138.2855  141.3255  164.2855 H       1  UNL1        0.1437
     11 H         138.5964  141.6344  165.9334 H       1  UNL1        0.1437
     12 C         145.2219  140.0625  155.5742 C.3     1  UNL1        0.0029
     13 C         144.6186  140.9782  156.5978 C.3     1  UNL1        0.0340
     14 C         144.2753  140.6153  158.0122 C.3     1  UNL1        0.0042
     15 C         143.6972  141.8303  158.6753 C.3     1  UNL1        0.0190
     16 C         143.7743  140.6269  159.5674 C.3     1  UNL1        0.0229
     17 C         143.2944  140.7130  160.9859 C.3     1  UNL1        0.0936
     18 N         142.7376  142.0025  161.5123 N.pl3   1  UNL1       -0.2794
     19 C         142.6606  143.2059  160.6202 C.3     1  UNL1        0.0936
     20 C         143.1404  143.1198  159.2017 C.3     1  UNL1        0.0229
     21 C         143.6832  142.9441  157.6705 C.3     1  UNL1        0.0838
     22 N         143.1869  144.3395  157.9082 N.3     1  UNL1       -0.3200
     23 C         144.2526  142.4175  156.3866 C.3     1  UNL1        0.1749
     24 F         144.4257  143.1938  155.1150 F       1  UNL1       -0.2359
     25 H         142.8543  144.4231  158.8688 H       1  UNL1        0.1189
     26 H         142.4219  144.5425  157.2647 H       1  UNL1        0.1189
     27 S         140.8184  142.3469  167.1867 S.3     1  UNL1       -0.0780
     28 C         141.3735  141.4163  168.2239 C.ar    1  UNL1        0.0514
     29 C         142.0356  140.1368  167.8062 C.ar    1  UNL1        0.0095
     30 C         142.5907  139.2061  168.8435 C.ar    1  UNL1        0.0212
     31 C         142.4837  139.5550  170.2984 C.ar    1  UNL1        0.0988
     32 N         141.8216  140.8345  170.7161 N.ar    1  UNL1       -0.2394
     33 C         141.2665  141.7651  169.6789 C.ar    1  UNL1        0.1585
     34 C         140.6044  143.0447  170.0966 C.3     1  UNL1        0.4353
     35 F         139.9423  144.3242  170.5143 F       1  UNL1       -0.1644
     36 F         141.9180  143.7604  169.9863 F       1  UNL1       -0.1644
     37 F         139.2908  142.3289  170.2070 F       1  UNL1       -0.1644
@<TRIPOS>BOND
     1    13    12    1
     2    13    14    1
     3    14    15    1
     4    15    16    1
     5    16    17    1
     6    17    18    1
     7    18     1    1
     8     1     2   ar
     9     2     3   ar
    10     3     4    1
    11     3     5   ar
    12     5    27    1
    13    27    28    1
    14    28    29   ar
    15    29    30   ar
    16    30    31   ar
    17    31    32   ar
    18    32    33   ar
    19    33    34    1
    20    34    35    1
    21    34    36    1
    22    34    37    1
    23     5     6   ar
    24     6     7    2
    25     6     8   ar
    26     8     9    1
    27    18    19    1
    28    19    20    1
    29    15    21    1
    30    21    22    1
    31    21    23    1
    32    23    24    1
    33    23    13    1
    34    20    15    1
    35     8     1   ar
    36    33    28   ar
    37     4    10    1
    38     4    11    1
    39    22    25    1
    40    22    26    1
@<TRIPOS>MOLECULE
*****
 37 40 0 0 0
SMALL
GASTEIGER

@<TRIPOS>ATOM
      1 C         140.6818  139.7223  162.4802 C.ar    1  UNL1        0.2046
      2 N         139.7104  140.2080  161.4456 N.ar    1  UNL1       -0.1998
      3 C         139.8374  139.7486  160.0233 C.ar    1  UNL1        0.1389
      4 N         138.8660  140.2343  158.9887 N.pl3   1  UNL1       -0.3420
      5 C         140.9358  138.8034  159.6357 C.ar    1  UNL1        0.1169
      6 C         141.9072  138.3177  160.6704 C.ar    1  UNL1        0.2716
      7 O         143.0056  137.3726  160.2827 O.2     1  UNL1       -0.2663
      8 N         141.7802  138.7771  162.0926 N.ar    1  UNL1       -0.2662
      9 C         142.7517  138.2914  163.1273 C.3     1  UNL1        0.1363
     10 H         138.1451  140.8546  159.2431 H       1  UNL1        0.1437
     11 H         138.9493  139.9328  158.0552 H       1  UNL1        0.1437
     12 C         140.9491  143.4667  169.7549 C.3     1  UNL1        0.0029
     13 C         140.5406  142.3993  168.7833 C.3     1  UNL1        0.0340
     14 C         140.9301  142.3281  167.3365 C.3     1  UNL1        0.0042
     15 C         140.3010  141.1006  166.7469 C.3     1  UNL1        0.0190
     16 C         141.1177  141.8958  165.7720 C.3     1  UNL1        0.0229
     17 C         141.2447  141.4363  164.3498 C.3     1  UNL1        0.0936
     18 N         140.5549  140.1817  163.9025 N.pl3   1  UNL1       -0.2794
     19 C         139.7381  139.3865  164.8775 C.3     1  UNL1        0.0936
     20 C         139.6112  139.8459  166.2997 C.3     1  UNL1        0.0229
     21 C         139.5227  140.4132  167.8295 C.3     1  UNL1        0.0838
     22 N         138.7347  139.1457  167.6797 N.3     1  UNL1       -0.3200
     23 C         139.6707  141.2158  169.0880 C.3     1  UNL1        0.1749
     24 F         139.0568  140.8919  170.4176 F       1  UNL1       -0.2359
     25 H         138.8059  138.8127  166.7182 H       1  UNL1        0.1189
     26 H         137.7564  139.3247  167.9060 H       1  UNL1        0.1189
     27 S         141.0628  138.3440  158.2135 S.3     1  UNL1       -0.0780
     28 C         142.2715  138.7202  157.4089 C.ar    1  UNL1        0.0514
     29 C         142.8370  140.1060  157.5082 C.ar    1  UNL1        0.0095
     30 C         144.0458  140.4822  156.7036 C.ar    1  UNL1        0.0212
     31 C         144.6891  139.4727  155.7997 C.ar    1  UNL1        0.0988
     32 N         144.1236  138.0869  155.7004 N.ar    1  UNL1       -0.2394
     33 C         142.9149  137.7107  156.5050 C.ar    1  UNL1        0.1585
     34 C         142.3494  136.3249  156.4057 C.3     1  UNL1        0.4353
     35 F         141.7839  134.9391  156.3064 F       1  UNL1       -0.1644
     36 F         143.2408  135.8807  157.5273 F       1  UNL1       -0.1644
     37 F         141.4579  136.7691  155.2840 F       1  UNL1       -0.1644
@<TRIPOS>BOND
     1    13    12    1
     2    13    14    1
     3    14    15    1
     4    15    16    1
     5    16    17    1
     6    17    18    1
     7    18     1    1
     8     1     2   ar
     9     2     3   ar
    10     3     4    1
    11     3     5   ar
    12     5    27    1
    13    27    28    1
    14    28    29   ar
    15    29    30   ar
    16    30    31   ar
    17    31    32   ar
    18    32    33   ar
    19    33    34    1
    20    34    35    1
    21    34    36    1
    22    34    37    1
    23     5     6   ar
    24     6     7    2
    25     6     8   ar
    26     8     9    1
    27    18    19    1
    28    19    20    1
    29    15    21    1
    30    21    22    1
    31    21    23    1
    32    23    24    1
    33    23    13    1
    34    20    15    1
    35     8     1   ar
    36    33    28   ar
    37     4    10    1
    38     4    11    1
    39    22    25    1
    40    22    26    1
@<TRIPOS>MOLECULE
*****
 37 40 0 0 0
SMALL
GASTEIGER

@<TRIPOS>ATOM
      1 C         142.7796  141.8273  161.5735 C.ar    1  UNL1        0.2046
      2 N         141.4640  142.5432  161.6540 N.ar    1  UNL1       -0.1998
      3 C         140.7901  142.7268  162.9816 C.ar    1  UNL1        0.1389
      4 N         139.4744  143.4426  163.0621 N.pl3   1  UNL1       -0.3420
      5 C         141.4319  142.1944  164.2284 C.ar    1  UNL1        0.1169
      6 C         142.7476  141.4785  164.1478 C.ar    1  UNL1        0.2716
      7 O         143.3894  140.9462  165.3947 O.2     1  UNL1       -0.2663
      8 N         143.4214  141.2950  162.8203 N.ar    1  UNL1       -0.2662
      9 C         144.7372  140.5791  162.7397 C.3     1  UNL1        0.1363
     10 H         139.0532  143.7920  162.2438 H       1  UNL1        0.1437
     11 H         139.0321  143.5631  163.9334 H       1  UNL1        0.1437
     12 C         147.1963  142.2435  154.6936 C.3     1  UNL1        0.0029
     13 C         146.2120  141.6367  155.6490 C.3     1  UNL1        0.0340
     14 C         145.8019  142.2083  156.9739 C.3     1  UNL1        0.0042
     15 C         144.8013  141.2767  157.5911 C.3     1  UNL1        0.0190
     16 C         145.1114  142.4812  158.4294 C.3     1  UNL1        0.0229
     17 C         144.4375  142.6648  159.7568 C.3     1  UNL1        0.0936
     18 N         143.4535  141.6437  160.2459 N.pl3   1  UNL1       -0.2794
     19 C         143.1434  140.4392  159.4076 C.3     1  UNL1        0.0936
     20 C         143.8173  140.2556  158.0802 C.3     1  UNL1        0.0229
     21 C         144.5930  140.1292  156.6476 C.3     1  UNL1        0.0838
     22 N         143.6742  138.9639  156.8661 N.3     1  UNL1       -0.3200
     23 C         145.4648  140.3517  155.4474 C.3     1  UNL1        0.1749
     24 F         145.5708  139.4479  154.2551 F       1  UNL1       -0.2359
     25 H         143.2031  139.0663  157.7650 H       1  UNL1        0.1189
     26 H         144.2150  138.0991  156.8623 H       1  UNL1        0.1189
     27 S         140.7580  142.3780  165.5559 S.3     1  UNL1       -0.0780
     28 C         139.9370  141.2669  166.1401 C.ar    1  UNL1        0.0514
     29 C         138.9466  140.5357  165.2832 C.ar    1  UNL1        0.0095
     30 C         138.1255  139.4246  165.8675 C.ar    1  UNL1        0.0212
     31 C         138.2948  139.0448  167.3087 C.ar    1  UNL1        0.0988
     32 N         139.2852  139.7761  168.1656 N.ar    1  UNL1       -0.2394
     33 C         140.1063  140.8871  167.5814 C.ar    1  UNL1        0.1585
     34 C         141.0967  141.6184  168.4383 C.3     1  UNL1        0.4353
     35 F         142.0871  142.3497  169.2953 F       1  UNL1       -0.1644
     36 F         140.0653  142.6659  168.7365 F       1  UNL1       -0.1644
     37 F         142.1281  140.5708  168.1402 F       1  UNL1       -0.1644
@<TRIPOS>BOND
     1    13    12    1
     2    13    14    1
     3    14    15    1
     4    15    16    1
     5    16    17    1
     6    17    18    1
     7    18     1    1
     8     1     2   ar
     9     2     3   ar
    10     3     4    1
    11     3     5   ar
    12     5    27    1
    13    27    28    1
    14    28    29   ar
    15    29    30   ar
    16    30    31   ar
    17    31    32   ar
    18    32    33   ar
    19    33    34    1
    20    34    35    1
    21    34    36    1
    22    34    37    1
    23     5     6   ar
    24     6     7    2
    25     6     8   ar
    26     8     9    1
    27    18    19    1
    28    19    20    1
    29    15    21    1
    30    21    22    1
    31    21    23    1
    32    23    24    1
    33    23    13    1
    34    20    15    1
    35     8     1   ar
    36    33    28   ar
    37     4    10    1
    38     4    11    1
    39    22    25    1
    40    22    26    1
@<TRIPOS>MOLECULE
*****
 37 40 0 0 0
SMALL
GASTEIGER

@<TRIPOS>ATOM
      1 C         141.8356  143.8851  161.0922 C.ar    1  UNL1        0.2046
      2 N         142.8989  144.4459  161.9893 N.ar    1  UNL1       -0.1998
      3 C         142.9657  144.0248  163.4275 C.ar    1  UNL1        0.1389
      4 N         144.0290  144.5856  164.3246 N.pl3   1  UNL1       -0.3420
      5 C         141.9691  143.0429  163.9685 C.ar    1  UNL1        0.1169
      6 C         140.9057  142.4821  163.0714 C.ar    1  UNL1        0.2716
      7 O         139.9091  141.5003  163.6124 O.2     1  UNL1       -0.2663
      8 N         140.8390  142.9032  161.6333 N.ar    1  UNL1       -0.2662
      9 C         139.7756  142.3424  160.7361 C.3     1  UNL1        0.1363
     10 H         144.6831  145.2300  163.9695 H       1  UNL1        0.1437
     11 H         144.0728  144.3092  165.2685 H       1  UNL1        0.1437
     12 C         142.6480  145.0604  153.0318 C.3     1  UNL1        0.0029
     13 C         142.0701  145.3014  154.3948 C.3     1  UNL1        0.0340
     14 C         142.4658  144.5951  155.6577 C.3     1  UNL1        0.0042
     15 C         141.6354  145.1482  156.7778 C.3     1  UNL1        0.0190
     16 C         142.5997  144.0807  157.2028 C.3     1  UNL1        0.0229
     17 C         142.6664  143.6597  158.6409 C.3     1  UNL1        0.0936
     18 N         141.7688  144.3061  159.6540 N.pl3   1  UNL1       -0.2794
     19 C         140.8045  145.3736  159.2291 C.3     1  UNL1        0.0936
     20 C         140.7378  145.7946  157.7910 C.3     1  UNL1        0.0229
     21 C         140.7265  146.1963  156.2071 C.3     1  UNL1        0.0838
     22 N         139.7248  147.0072  156.9746 N.3     1  UNL1       -0.3200
     23 C         140.9952  146.2909  154.7345 C.3     1  UNL1        0.1749
     24 F         140.3094  147.2131  153.7706 F       1  UNL1       -0.2359
     25 H         139.7514  146.7382  157.9581 H       1  UNL1        0.1189
     26 H         138.7912  146.8368  156.6006 H       1  UNL1        0.1189
     27 S         142.0358  142.6218  165.4066 S.3     1  UNL1       -0.0780
     28 C         142.5315  141.2522  165.7648 C.ar    1  UNL1        0.0514
     29 C         143.3996  140.4940  164.8049 C.ar    1  UNL1        0.0095
     30 C         143.8953  139.1243  165.1632 C.ar    1  UNL1        0.0212
     31 C         143.5228  138.5128  166.4812 C.ar    1  UNL1        0.0988
     32 N         142.6546  139.2711  167.4411 N.ar    1  UNL1       -0.2394
     33 C         142.1590  140.6407  167.0830 C.ar    1  UNL1        0.1585
     34 C         141.2908  141.3989  168.0428 C.3     1  UNL1        0.4353
     35 F         140.4226  142.1571  169.0027 F       1  UNL1       -0.1644
     36 F         140.0700  140.7878  167.4214 F       1  UNL1       -0.1644
     37 F         142.5116  142.0101  168.6642 F       1  UNL1       -0.1644
@<TRIPOS>BOND
     1    13    12    1
     2    13    14    1
     3    14    15    1
     4    15    16    1
     5    16    17    1
     6    17    18    1
     7    18     1    1
     8     1     2   ar
     9     2     3   ar
    10     3     4    1
    11     3     5   ar
    12     5    27    1
    13    27    28    1
    14    28    29   ar
    15    29    30   ar
    16    30    31   ar
    17    31    32   ar
    18    32    33   ar
    19    33    34    1
    20    34    35    1
    21    34    36    1
    22    34    37    1
    23     5     6   ar
    24     6     7    2
    25     6     8   ar
    26     8     9    1
    27    18    19    1
    28    19    20    1
    29    15    21    1
    30    21    22    1
    31    21    23    1
    32    23    24    1
    33    23    13    1
    34    20    15    1
    35     8     1   ar
    36    33    28   ar
    37     4    10    1
    38     4    11    1
    39    22    25    1
    40    22    26    1
