@<TRIPOS>MOLECULE
*****
 27 31 0 0 0
SMALL
GASTEIGER

@<TRIPOS>ATOM
      1 C         141.1767  142.7086  166.1864 C.3     1  UNL1        0.0312
      2 C         142.0576  141.5137  165.9710 C.ar    1  UNL1       -0.0174
      3 C         143.1133  141.5427  164.9057 C.ar    1  UNL1        0.0334
      4 C         143.9942  140.3479  164.6902 C.ar    1  UNL1        0.1469
      5 C         143.8194  139.1241  165.5400 C.ar    1  UNL1        0.0376
      6 C         142.7638  139.0952  166.6052 C.ar    1  UNL1        0.0043
      7 C         141.8828  140.2901  166.8207 C.ar    1  UNL1        0.0136
      8 C         140.8271  140.2612  167.8859 C.ar    1  UNL1        0.0786
      9 C         139.4776  139.6778  167.5887 C.ar    1  UNL1        0.0755
     10 C         139.1838  139.1233  166.2262 C.3     1  UNL1        0.0537
     11 N         138.4219  139.6488  168.6538 N.ar    1  UNL1       -0.2435
     12 C         138.7158  140.2033  170.0163 C.ar    1  UNL1        0.1357
     13 C         140.0653  140.7867  170.3136 C.ar    1  UNL1        0.1672
     14 N         140.6414  141.4026  171.5540 N.ar    1  UNL1       -0.2232
     15 C         142.0532  141.8121  171.2554 C.ar    1  UNL1        0.1196
     16 C         142.3496  141.4494  169.8304 C.ar    1  UNL1        0.1022
     17 N         141.1210  140.8157  169.2483 N.ar    1  UNL1       -0.2865
     18 O         145.0499  140.3767  163.6250 O.3     1  UNL1       -0.4360
     19 C         144.6713  140.6590  162.2013 C.ar    1  UNL1        0.2326
     20 N         144.8430  142.0390  161.6390 N.ar    1  UNL1       -0.2096
     21 C         144.4644  142.3212  160.2154 C.ar    1  UNL1        0.1052
     22 C         143.9140  141.2235  159.3539 C.ar    1  UNL1        0.0584
     23 C         143.7423  139.8435  159.9161 C.ar    1  UNL1        0.1515
     24 O         143.2288  138.5703  159.3118 O.2     1  UNL1       -0.4502
     25 C         143.2900  137.5011  160.3621 C.ar    1  UNL1        0.1798
     26 C         143.8414  138.1136  161.6155 C.ar    1  UNL1        0.0484
     27 C         144.1209  139.5613  161.3399 C.ar    1  UNL1        0.0912
@<TRIPOS>BOND
     1     1     2    1
     2     2     3   ar
     3     3     4   ar
     4     4    18    1
     5    18    19    1
     6    19    20   ar
     7    20    21   ar
     8    21    22   ar
     9    22    23   ar
    10    23    24   ar
    11    24    25   ar
    12    25    26   ar
    13    26    27   ar
    14     4     5   ar
    15     5     6   ar
    16     6     7   ar
    17     7     8    1
    18     8     9   ar
    19     9    10    1
    20     9    11   ar
    21    11    12   ar
    22    12    13   ar
    23    13    14   ar
    24    14    15   ar
    25    15    16   ar
    26    16    17   ar
    27     7     2   ar
    28    17     8   ar
    29    27    19   ar
    30    17    13   ar
    31    27    23   ar
@<TRIPOS>MOLECULE
*****
 27 31 0 0 0
SMALL
GASTEIGER

@<TRIPOS>ATOM
      1 C         143.3018  145.1386  163.8608 C.3     1  UNL1        0.0312
      2 C         142.7090  143.7920  164.1527 C.ar    1  UNL1       -0.0174
      3 C         143.1147  143.0462  165.3894 C.ar    1  UNL1        0.0334
      4 C         142.5219  141.6996  165.6813 C.ar    1  UNL1        0.1469
      5 C         141.5234  141.0988  164.7367 C.ar    1  UNL1        0.0376
      6 C         141.1178  141.8446  163.5001 C.ar    1  UNL1        0.0043
      7 C         141.7106  143.1913  163.2082 C.ar    1  UNL1        0.0136
      8 C         141.3050  143.9372  161.9715 C.ar    1  UNL1        0.0786
      9 C         140.1170  144.8525  162.0036 C.ar    1  UNL1        0.0755
     10 C         139.3348  145.0219  163.2722 C.3     1  UNL1        0.0537
     11 N         139.7113  145.5983  160.7670 N.ar    1  UNL1       -0.2435
     12 C         140.4936  145.4288  159.4984 C.ar    1  UNL1        0.1357
     13 C         141.6815  144.5135  159.4663 C.ar    1  UNL1        0.1672
     14 N         142.6380  144.1484  158.3701 N.ar    1  UNL1       -0.2232
     15 C         143.6348  143.1769  158.9291 C.ar    1  UNL1        0.1196
     16 C         143.2944  142.9416  160.3709 C.ar    1  UNL1        0.1022
     17 N         142.0872  143.7677  160.7030 N.ar    1  UNL1       -0.2865
     18 O         142.9275  140.9537  166.9179 O.3     1  UNL1       -0.4360
     19 C         142.5593  141.4876  168.2705 C.ar    1  UNL1        0.2326
     20 N         143.4986  142.4048  168.9959 N.ar    1  UNL1       -0.2096
     21 C         143.1305  142.9387  170.3484 C.ar    1  UNL1        0.1052
     22 C         141.8229  142.5553  170.9756 C.ar    1  UNL1        0.0584
     23 C         140.8836  141.6380  170.2502 C.ar    1  UNL1        0.1515
     24 O         139.5360  141.0889  170.6142 O.2     1  UNL1       -0.4502
     25 C         139.0714  140.2156  169.4867 C.ar    1  UNL1        0.1798
     26 C         140.1318  140.2250  168.4257 C.ar    1  UNL1        0.0484
     27 C         141.2518  141.1042  168.8976 C.ar    1  UNL1        0.0912
@<TRIPOS>BOND
     1     1     2    1
     2     2     3   ar
     3     3     4   ar
     4     4    18    1
     5    18    19    1
     6    19    20   ar
     7    20    21   ar
     8    21    22   ar
     9    22    23   ar
    10    23    24   ar
    11    24    25   ar
    12    25    26   ar
    13    26    27   ar
    14     4     5   ar
    15     5     6   ar
    16     6     7   ar
    17     7     8    1
    18     8     9   ar
    19     9    10    1
    20     9    11   ar
    21    11    12   ar
    22    12    13   ar
    23    13    14   ar
    24    14    15   ar
    25    15    16   ar
    26    16    17   ar
    27     7     2   ar
    28    17     8   ar
    29    27    19   ar
    30    17    13   ar
    31    27    23   ar
@<TRIPOS>MOLECULE
*****
 27 31 0 0 0
SMALL
GASTEIGER

@<TRIPOS>ATOM
      1 C         138.7786  139.3048  166.7767 C.3     1  UNL1        0.0312
      2 C         139.2539  140.5892  166.1648 C.ar    1  UNL1       -0.0174
      3 C         138.4944  141.2037  165.0264 C.ar    1  UNL1        0.0334
      4 C         138.9697  142.4881  164.4144 C.ar    1  UNL1        0.1469
      5 C         140.2043  143.1581  164.9408 C.ar    1  UNL1        0.0376
      6 C         140.9636  142.5436  166.0791 C.ar    1  UNL1        0.0043
      7 C         140.4883  141.2591  166.6911 C.ar    1  UNL1        0.0136
      8 C         141.2477  140.6446  167.8295 C.ar    1  UNL1        0.0786
      9 C         142.2519  139.5626  167.5637 C.ar    1  UNL1        0.0755
     10 C         142.4967  139.0949  166.1596 C.3     1  UNL1        0.0537
     11 N         143.0113  138.9481  168.7020 N.ar    1  UNL1       -0.2435
     12 C         142.7665  139.4158  170.1061 C.ar    1  UNL1        0.1357
     13 C         141.7623  140.4979  170.3719 C.ar    1  UNL1        0.1672
     14 N         141.3111  141.1589  171.6405 N.ar    1  UNL1       -0.2232
     15 C         140.2729  142.1819  171.2862 C.ar    1  UNL1        0.1196
     16 C         140.0824  142.1531  169.7986 C.ar    1  UNL1        0.1022
     17 N         141.0029  141.1123  169.2335 N.ar    1  UNL1       -0.2865
     18 O         138.2104  143.1026  163.2761 O.3     1  UNL1       -0.4360
     19 C         138.9384  143.8892  162.2268 C.ar    1  UNL1        0.2326
     20 N         138.9646  145.3874  162.2959 N.ar    1  UNL1       -0.2096
     21 C         139.6926  146.1740  161.2467 C.ar    1  UNL1        0.1052
     22 C         140.3946  145.4625  160.1281 C.ar    1  UNL1        0.0584
     23 C         140.3685  143.9644  160.0590 C.ar    1  UNL1        0.1515
     24 O         140.9646  142.9942  159.0826 O.2     1  UNL1       -0.4502
     25 C         140.6049  141.6079  159.5285 C.ar    1  UNL1        0.1798
     26 C         139.7865  141.7213  160.7804 C.ar    1  UNL1        0.0484
     27 C         139.6404  143.1777  161.1083 C.ar    1  UNL1        0.0912
@<TRIPOS>BOND
     1     1     2    1
     2     2     3   ar
     3     3     4   ar
     4     4    18    1
     5    18    19    1
     6    19    20   ar
     7    20    21   ar
     8    21    22   ar
     9    22    23   ar
    10    23    24   ar
    11    24    25   ar
    12    25    26   ar
    13    26    27   ar
    14     4     5   ar
    15     5     6   ar
    16     6     7   ar
    17     7     8    1
    18     8     9   ar
    19     9    10    1
    20     9    11   ar
    21    11    12   ar
    22    12    13   ar
    23    13    14   ar
    24    14    15   ar
    25    15    16   ar
    26    16    17   ar
    27     7     2   ar
    28    17     8   ar
    29    27    19   ar
    30    17    13   ar
    31    27    23   ar
@<TRIPOS>MOLECULE
*****
 27 31 0 0 0
SMALL
GASTEIGER

@<TRIPOS>ATOM
      1 C         143.3610  138.4929  166.9468 C.3     1  UNL1        0.0312
      2 C         142.1441  138.8960  166.1680 C.ar    1  UNL1       -0.0174
      3 C         141.6812  138.0582  165.0130 C.ar    1  UNL1        0.0334
      4 C         140.4643  138.4613  164.2343 C.ar    1  UNL1        0.1469
      5 C         139.7102  139.7023  164.6103 C.ar    1  UNL1        0.0376
      6 C         140.1731  140.5400  165.7653 C.ar    1  UNL1        0.0043
      7 C         141.3901  140.1369  166.5441 C.ar    1  UNL1        0.0136
      8 C         141.8529  140.9747  167.6991 C.ar    1  UNL1        0.0786
      9 C         142.9238  142.0053  167.4963 C.ar    1  UNL1        0.0755
     10 C         143.5317  142.1981  166.1386 C.3     1  UNL1        0.0537
     11 N         143.3866  142.8432  168.6511 N.ar    1  UNL1       -0.2435
     12 C         142.7786  142.6504  170.0088 C.ar    1  UNL1        0.1357
     13 C         141.7078  141.6198  170.2116 C.ar    1  UNL1        0.1672
     14 N         140.9290  141.2069  171.4252 N.ar    1  UNL1       -0.2232
     15 C         139.9848  140.1139  171.0204 C.ar    1  UNL1        0.1196
     16 C         140.1801  139.8512  169.5565 C.ar    1  UNL1        0.1022
     17 N         141.2449  140.7819  169.0566 N.ar    1  UNL1       -0.2865
     18 O         140.0014  137.6235  163.0793 O.3     1  UNL1       -0.4360
     19 C         140.3022  138.0522  161.6737 C.ar    1  UNL1        0.2326
     20 N         139.1800  138.3523  160.7247 N.ar    1  UNL1       -0.2096
     21 C         139.4807  138.7810  159.3192 C.ar    1  UNL1        0.1052
     22 C         140.9038  138.9096  158.8625 C.ar    1  UNL1        0.0584
     23 C         142.0260  138.6095  159.8114 C.ar    1  UNL1        0.1515
     24 O         143.5165  138.6479  159.6474 O.2     1  UNL1       -0.4502
     25 C         144.1369  138.2429  160.9516 C.ar    1  UNL1        0.1798
     26 C         143.0298  137.9542  161.9217 C.ar    1  UNL1        0.0484
     27 C         141.7252  138.1808  161.2171 C.ar    1  UNL1        0.0912
@<TRIPOS>BOND
     1     1     2    1
     2     2     3   ar
     3     3     4   ar
     4     4    18    1
     5    18    19    1
     6    19    20   ar
     7    20    21   ar
     8    21    22   ar
     9    22    23   ar
    10    23    24   ar
    11    24    25   ar
    12    25    26   ar
    13    26    27   ar
    14     4     5   ar
    15     5     6   ar
    16     6     7   ar
    17     7     8    1
    18     8     9   ar
    19     9    10    1
    20     9    11   ar
    21    11    12   ar
    22    12    13   ar
    23    13    14   ar
    24    14    15   ar
    25    15    16   ar
    26    16    17   ar
    27     7     2   ar
    28    17     8   ar
    29    27    19   ar
    30    17    13   ar
    31    27    23   ar
@<TRIPOS>MOLECULE
*****
 27 31 0 0 0
SMALL
GASTEIGER

@<TRIPOS>ATOM
      1 C         138.7863  139.2413  166.7857 C.3     1  UNL1        0.0312
      2 C         139.1950  140.5525  166.1827 C.ar    1  UNL1       -0.0174
      3 C         138.4037  141.1361  165.0498 C.ar    1  UNL1        0.0334
      4 C         138.8125  142.4473  164.4468 C.ar    1  UNL1        0.1469
      5 C         140.0124  143.1751  164.9767 C.ar    1  UNL1        0.0376
      6 C         140.8035  142.5915  166.1096 C.ar    1  UNL1        0.0043
      7 C         140.3948  141.2801  166.7126 C.ar    1  UNL1        0.0136
      8 C         141.1860  140.6966  167.8456 C.ar    1  UNL1        0.0786
      9 C         142.2054  139.6295  167.5769 C.ar    1  UNL1        0.0755
     10 C         142.4335  139.1460  166.1754 C.3     1  UNL1        0.0537
     11 N         142.9966  139.0459  168.7098 N.ar    1  UNL1       -0.2435
     12 C         142.7684  139.5294  170.1113 C.ar    1  UNL1        0.1357
     13 C         141.7490  140.5965  170.3799 C.ar    1  UNL1        0.1672
     14 N         141.3085  141.2676  171.6470 N.ar    1  UNL1       -0.2232
     15 C         140.2451  142.2660  171.2972 C.ar    1  UNL1        0.1196
     16 C         140.0283  142.2119  169.8139 C.ar    1  UNL1        0.1022
     17 N         140.9578  141.1801  169.2470 N.ar    1  UNL1       -0.2865
     18 O         138.0213  143.0309  163.3139 O.3     1  UNL1       -0.4360
     19 C         138.3560  142.6645  161.8984 C.ar    1  UNL1        0.2326
     20 N         137.7898  141.4141  161.2935 N.ar    1  UNL1       -0.2096
     21 C         138.1244  141.0476  159.8780 C.ar    1  UNL1        0.1052
     22 C         139.0253  141.9315  159.0673 C.ar    1  UNL1        0.0584
     23 C         139.5915  143.1819  159.6722 C.ar    1  UNL1        0.1515
     24 O         140.5005  144.2406  159.1218 O.2     1  UNL1       -0.4502
     25 C         140.7276  145.2614  160.1972 C.ar    1  UNL1        0.1798
     26 C         139.9590  144.8336  161.4122 C.ar    1  UNL1        0.0484
     27 C         139.2568  143.5484  161.0878 C.ar    1  UNL1        0.0912
@<TRIPOS>BOND
     1     1     2    1
     2     2     3   ar
     3     3     4   ar
     4     4    18    1
     5    18    19    1
     6    19    20   ar
     7    20    21   ar
     8    21    22   ar
     9    22    23   ar
    10    23    24   ar
    11    24    25   ar
    12    25    26   ar
    13    26    27   ar
    14     4     5   ar
    15     5     6   ar
    16     6     7   ar
    17     7     8    1
    18     8     9   ar
    19     9    10    1
    20     9    11   ar
    21    11    12   ar
    22    12    13   ar
    23    13    14   ar
    24    14    15   ar
    25    15    16   ar
    26    16    17   ar
    27     7     2   ar
    28    17     8   ar
    29    27    19   ar
    30    17    13   ar
    31    27    23   ar
@<TRIPOS>MOLECULE
*****
 27 31 0 0 0
SMALL
GASTEIGER

@<TRIPOS>ATOM
      1 C         143.3023  138.4960  166.6563 C.3     1  UNL1        0.0312
      2 C         143.3002  139.7642  165.8553 C.ar    1  UNL1       -0.0174
      3 C         144.2170  139.9085  164.6769 C.ar    1  UNL1        0.0334
      4 C         144.2149  141.1767  163.8759 C.ar    1  UNL1        0.1469
      5 C         143.2960  142.3007  164.2533 C.ar    1  UNL1        0.0376
      6 C         142.3793  142.1564  165.4317 C.ar    1  UNL1        0.0043
      7 C         142.3813  140.8881  166.2327 C.ar    1  UNL1        0.0136
      8 C         141.4645  140.7439  167.4112 C.ar    1  UNL1        0.0786
      9 C         141.8515  141.3265  168.7381 C.ar    1  UNL1        0.0755
     10 C         143.1552  142.0534  168.8866 C.3     1  UNL1        0.0537
     11 N         140.9347  141.1823  169.9166 N.ar    1  UNL1       -0.2435
     12 C         139.6310  140.4555  169.7680 C.ar    1  UNL1        0.1357
     13 C         139.2440  139.8728  168.4411 C.ar    1  UNL1        0.1672
     14 N         138.0324  139.1093  167.9950 N.ar    1  UNL1       -0.2232
     15 C         138.2004  138.7816  166.5410 C.ar    1  UNL1        0.1196
     16 C         139.5158  139.3426  166.0883 C.ar    1  UNL1        0.1022
     17 N         140.1609  140.0171  167.2626 N.ar    1  UNL1       -0.2865
     18 O         145.1317  141.3210  162.6975 O.3     1  UNL1       -0.4360
     19 C         144.5701  141.3267  161.3066 C.ar    1  UNL1        0.2326
     20 N         144.5902  142.5878  160.4948 N.ar    1  UNL1       -0.2096
     21 C         144.0286  142.5935  159.1040 C.ar    1  UNL1        0.1052
     22 C         143.4469  141.3380  158.5248 C.ar    1  UNL1        0.0584
     23 C         143.4267  140.0769  159.3366 C.ar    1  UNL1        0.1515
     24 O         142.9227  138.6968  159.0345 O.2     1  UNL1       -0.4502
     25 C         143.1728  137.8381  160.2387 C.ar    1  UNL1        0.1798
     26 C         143.8314  138.6875  161.2850 C.ar    1  UNL1        0.0484
     27 C         143.9883  140.0712  160.7275 C.ar    1  UNL1        0.0912
@<TRIPOS>BOND
     1     1     2    1
     2     2     3   ar
     3     3     4   ar
     4     4    18    1
     5    18    19    1
     6    19    20   ar
     7    20    21   ar
     8    21    22   ar
     9    22    23   ar
    10    23    24   ar
    11    24    25   ar
    12    25    26   ar
    13    26    27   ar
    14     4     5   ar
    15     5     6   ar
    16     6     7   ar
    17     7     8    1
    18     8     9   ar
    19     9    10    1
    20     9    11   ar
    21    11    12   ar
    22    12    13   ar
    23    13    14   ar
    24    14    15   ar
    25    15    16   ar
    26    16    17   ar
    27     7     2   ar
    28    17     8   ar
    29    27    19   ar
    30    17    13   ar
    31    27    23   ar
@<TRIPOS>MOLECULE
*****
 27 31 0 0 0
SMALL
GASTEIGER

@<TRIPOS>ATOM
      1 C         142.8925  139.4521  166.5522 C.3     1  UNL1        0.0312
      2 C         142.3433  140.6590  165.8510 C.ar    1  UNL1       -0.0174
      3 C         142.8658  141.0429  164.4983 C.ar    1  UNL1        0.0334
      4 C         142.3166  142.2498  163.7971 C.ar    1  UNL1        0.1469
      5 C         141.2451  143.0730  164.4485 C.ar    1  UNL1        0.0376
      6 C         140.7228  142.6891  165.8012 C.ar    1  UNL1        0.0043
      7 C         141.2719  141.4821  166.5025 C.ar    1  UNL1        0.0136
      8 C         140.7495  141.0982  167.8552 C.ar    1  UNL1        0.0786
      9 C         139.6077  140.1325  167.9718 C.ar    1  UNL1        0.0755
     10 C         138.9883  139.5507  166.7358 C.3     1  UNL1        0.0537
     11 N         139.0852  139.7487  169.3245 N.ar    1  UNL1       -0.2435
     12 C         139.7047  140.3306  170.5605 C.ar    1  UNL1        0.1357
     13 C         140.8465  141.2963  170.4439 C.ar    1  UNL1        0.1672
     14 N         141.6522  142.0274  171.4765 N.ar    1  UNL1       -0.2232
     15 C         142.6725  142.8631  170.7620 C.ar    1  UNL1        0.1196
     16 C         142.4975  142.6485  169.2878 C.ar    1  UNL1        0.1022
     17 N         141.3690  141.6801  169.0911 N.ar    1  UNL1       -0.2865
     18 O         142.8390  142.6337  162.4444 O.3     1  UNL1       -0.4360
     19 C         141.9082  143.2021  161.4146 C.ar    1  UNL1        0.2326
     20 N         142.1057  144.6033  160.9169 N.ar    1  UNL1       -0.2096
     21 C         141.1750  145.1716  159.8871 C.ar    1  UNL1        0.1052
     22 C         140.0465  144.3388  159.3549 C.ar    1  UNL1        0.0584
     23 C         139.8490  142.9377  159.8526 C.ar    1  UNL1        0.1515
     24 O         138.8332  141.8867  159.5154 O.2     1  UNL1       -0.4502
     25 C         139.1363  140.6688  160.3368 C.ar    1  UNL1        0.1798
     26 C         140.3393  140.9670  161.1817 C.ar    1  UNL1        0.0484
     27 C         140.7798  142.3693  160.8824 C.ar    1  UNL1        0.0912
@<TRIPOS>BOND
     1     1     2    1
     2     2     3   ar
     3     3     4   ar
     4     4    18    1
     5    18    19    1
     6    19    20   ar
     7    20    21   ar
     8    21    22   ar
     9    22    23   ar
    10    23    24   ar
    11    24    25   ar
    12    25    26   ar
    13    26    27   ar
    14     4     5   ar
    15     5     6   ar
    16     6     7   ar
    17     7     8    1
    18     8     9   ar
    19     9    10    1
    20     9    11   ar
    21    11    12   ar
    22    12    13   ar
    23    13    14   ar
    24    14    15   ar
    25    15    16   ar
    26    16    17   ar
    27     7     2   ar
    28    17     8   ar
    29    27    19   ar
    30    17    13   ar
    31    27    23   ar
@<TRIPOS>MOLECULE
*****
 27 31 0 0 0
SMALL
GASTEIGER

@<TRIPOS>ATOM
      1 C         138.1007  141.5173  164.6294 C.3     1  UNL1        0.0312
      2 C         138.6605  140.2050  164.1663 C.ar    1  UNL1       -0.0174
      3 C         138.4639  139.7652  162.7457 C.ar    1  UNL1        0.0334
      4 C         139.0237  138.4530  162.2825 C.ar    1  UNL1        0.1469
      5 C         139.7801  137.5804  163.2399 C.ar    1  UNL1        0.0376
      6 C         139.9767  138.0202  164.6605 C.ar    1  UNL1        0.0043
      7 C         139.4168  139.3325  165.1236 C.ar    1  UNL1        0.0136
      8 C         139.6135  139.7723  166.5442 C.ar    1  UNL1        0.0786
      9 C         138.6529  139.3270  167.6068 C.ar    1  UNL1        0.0755
     10 C         137.4959  138.4421  167.2489 C.3     1  UNL1        0.0537
     11 N         138.8495  139.7667  169.0274 N.ar    1  UNL1       -0.2435
     12 C         140.0066  140.6517  169.3853 C.ar    1  UNL1        0.1357
     13 C         140.9671  141.0969  168.3227 C.ar    1  UNL1        0.1672
     14 N         142.1906  141.9631  168.3747 N.ar    1  UNL1       -0.2232
     15 C         142.7502  142.0587  166.9863 C.ar    1  UNL1        0.1196
     16 C         141.8725  141.2516  166.0761 C.ar    1  UNL1        0.1022
     17 N         140.7705  140.6571  166.9021 N.ar    1  UNL1       -0.2865
     18 O         138.8271  138.0132  160.8620 O.3     1  UNL1       -0.4360
     19 C         139.4102  138.8197  159.7397 C.ar    1  UNL1        0.2326
     20 N         138.5062  139.5669  158.8046 N.ar    1  UNL1       -0.2096
     21 C         139.0891  140.3733  157.6823 C.ar    1  UNL1        0.1052
     22 C         140.5763  140.4327  157.4950 C.ar    1  UNL1        0.0584
     23 C         141.4803  139.6855  158.4301 C.ar    1  UNL1        0.1515
     24 O         142.9734  139.5570  158.4939 O.2     1  UNL1       -0.4502
     25 C         143.3132  138.6711  159.6557 C.ar    1  UNL1        0.1798
     26 C         142.0300  138.2521  160.3099 C.ar    1  UNL1        0.0484
     27 C         140.8973  138.8790  159.5525 C.ar    1  UNL1        0.0912
@<TRIPOS>BOND
     1     1     2    1
     2     2     3   ar
     3     3     4   ar
     4     4    18    1
     5    18    19    1
     6    19    20   ar
     7    20    21   ar
     8    21    22   ar
     9    22    23   ar
    10    23    24   ar
    11    24    25   ar
    12    25    26   ar
    13    26    27   ar
    14     4     5   ar
    15     5     6   ar
    16     6     7   ar
    17     7     8    1
    18     8     9   ar
    19     9    10    1
    20     9    11   ar
    21    11    12   ar
    22    12    13   ar
    23    13    14   ar
    24    14    15   ar
    25    15    16   ar
    26    16    17   ar
    27     7     2   ar
    28    17     8   ar
    29    27    19   ar
    30    17    13   ar
    31    27    23   ar
@<TRIPOS>MOLECULE
*****
 27 31 0 0 0
SMALL
GASTEIGER

@<TRIPOS>ATOM
      1 C         140.0729  141.1700  161.9307 C.3     1  UNL1        0.0312
      2 C         140.9456  141.7344  163.0123 C.ar    1  UNL1       -0.0174
      3 C         141.2400  140.9222  164.2386 C.ar    1  UNL1        0.0334
      4 C         142.1127  141.4865  165.3202 C.ar    1  UNL1        0.1469
      5 C         142.6910  142.8630  165.1756 C.ar    1  UNL1        0.0376
      6 C         142.3965  143.6752  163.9493 C.ar    1  UNL1        0.0043
      7 C         141.5238  143.1108  162.8677 C.ar    1  UNL1        0.0136
      8 C         141.2293  143.9230  161.6414 C.ar    1  UNL1        0.0786
      9 C         140.0824  144.8897  161.6397 C.ar    1  UNL1        0.0755
     10 C         139.2300  145.0443  162.8643 C.3     1  UNL1        0.0537
     11 N         139.7879  145.7020  160.4135 N.ar    1  UNL1       -0.2435
     12 C         140.6404  145.5474  159.1890 C.ar    1  UNL1        0.1357
     13 C         141.7873  144.5806  159.1906 C.ar    1  UNL1        0.1672
     14 N         142.7941  144.2159  158.1403 N.ar    1  UNL1       -0.2232
     15 C         143.7108  143.1783  158.7174 C.ar    1  UNL1        0.1196
     16 C         143.2706  142.9018  160.1244 C.ar    1  UNL1        0.1022
     17 N         142.0818  143.7684  160.4169 N.ar    1  UNL1       -0.2865
     18 O         142.4071  140.6744  166.5464 O.3     1  UNL1       -0.4360
     19 C         141.5110  140.7741  167.7451 C.ar    1  UNL1        0.2326
     20 N         140.2038  140.0388  167.7675 N.ar    1  UNL1       -0.2096
     21 C         139.3076  140.1386  168.9662 C.ar    1  UNL1        0.1052
     22 C         139.7186  140.9736  170.1426 C.ar    1  UNL1        0.0584
     23 C         141.0258  141.7089  170.1202 C.ar    1  UNL1        0.1515
     24 O         141.6923  142.6021  171.1242 O.2     1  UNL1       -0.4502
     25 C         143.0004  143.0543  170.5460 C.ar    1  UNL1        0.1798
     26 C         143.1424  142.4407  169.1847 C.ar    1  UNL1        0.0484
     27 C         141.9220  141.6092  168.9214 C.ar    1  UNL1        0.0912
@<TRIPOS>BOND
     1     1     2    1
     2     2     3   ar
     3     3     4   ar
     4     4    18    1
     5    18    19    1
     6    19    20   ar
     7    20    21   ar
     8    21    22   ar
     9    22    23   ar
    10    23    24   ar
    11    24    25   ar
    12    25    26   ar
    13    26    27   ar
    14     4     5   ar
    15     5     6   ar
    16     6     7   ar
    17     7     8    1
    18     8     9   ar
    19     9    10    1
    20     9    11   ar
    21    11    12   ar
    22    12    13   ar
    23    13    14   ar
    24    14    15   ar
    25    15    16   ar
    26    16    17   ar
    27     7     2   ar
    28    17     8   ar
    29    27    19   ar
    30    17    13   ar
    31    27    23   ar
