@<TRIPOS>MOLECULE
*****
 21 21 0 0 0
SMALL
GASTEIGER

@<TRIPOS>ATOM
      1 C         140.4398  140.9779  170.3414 C.3     1  UNL1        0.0986
      2 C         139.2747  140.4377  169.5662 C.2     1  UNL1       -0.0130
      3 C         139.4801  139.8993  168.1814 C.2     1  UNL1       -0.0246
      4 C         138.3151  139.3592  167.4062 C.3     1  UNL1        0.0520
      5 C         138.4275  139.1619  165.9235 C.ar    1  UNL1       -0.0178
      6 C         138.8516  137.8323  165.3738 C.ar    1  UNL1       -0.0031
      7 C         138.9639  137.6350  163.8911 C.ar    1  UNL1        0.0111
      8 C         138.6522  138.7673  162.9580 C.ar    1  UNL1        0.0577
      9 CL        138.7646  138.5701  161.4753 Cl      1  UNL1       -0.0822
     10 C         138.2281  140.0969  163.5077 C.ar    1  UNL1        0.0111
     11 C         138.1157  140.2942  164.9905 C.ar    1  UNL1       -0.0031
     12 N         141.7502  141.2214  169.6534 N.3     1  UNL1       -0.2690
     13 C         142.8701  140.2346  169.8020 C.3     1  UNL1        0.0724
     14 C         142.5662  138.7879  170.0561 C.3     1  UNL1        0.0188
     15 C         141.9408  142.4517  168.8167 C.3     1  UNL1        0.0724
     16 C         142.6806  142.3661  167.5146 C.3     1  UNL1        0.0173
     17 C         142.0085  141.7832  166.3070 C.3     1  UNL1        0.0014
     18 C         141.1505  142.6505  165.4343 C.3     1  UNL1        0.0000
     19 C         139.8779  143.2323  165.9747 C.3     1  UNL1        0.0000
     20 C         137.8620  144.1064  164.5882 C.3     1  UNL1        0.0000
     21 C         139.1913  144.3458  165.2407 C.3     1  UNL1        0.0000
@<TRIPOS>BOND
     1    20    21    1
     2    21    19    1
     3    19    18    1
     4    18    17    1
     5    17    16    1
     6    16    15    1
     7    15    12    1
     8    12    13    1
     9    13    14    1
    10    12     1    1
    11     1     2    1
    12     2     3    2
    13     3     4    1
    14     4     5    1
    15     5     6   ar
    16     6     7   ar
    17     7     8   ar
    18     8     9    1
    19     8    10   ar
    20    10    11   ar
    21    11     5   ar
@<TRIPOS>MOLECULE
*****
 21 21 0 0 0
SMALL
GASTEIGER

@<TRIPOS>ATOM
      1 C         142.4764  140.0843  167.6357 C.3     1  UNL1        0.0986
      2 C         141.2097  139.5819  167.0087 C.2     1  UNL1       -0.0130
      3 C         139.8907  139.8343  167.6769 C.2     1  UNL1       -0.0246
      4 C         138.6240  139.3320  167.0500 C.3     1  UNL1        0.0520
      5 C         138.5397  139.1620  165.5621 C.ar    1  UNL1       -0.0178
      6 C         138.8945  137.8459  164.9362 C.ar    1  UNL1       -0.0031
      7 C         138.8102  137.6759  163.4483 C.ar    1  UNL1        0.0111
      8 C         138.3711  138.8222  162.5862 C.ar    1  UNL1        0.0577
      9 CL        138.2867  138.6522  161.0982 Cl      1  UNL1       -0.0822
     10 C         138.0162  140.1383  163.2120 C.ar    1  UNL1        0.0111
     11 C         138.1005  140.3083  164.7000 C.ar    1  UNL1       -0.0031
     12 N         142.8733  141.5220  167.4762 N.3     1  UNL1       -0.2690
     13 C         142.7960  142.4558  168.6476 C.3     1  UNL1        0.0724
     14 C         143.8072  142.3597  169.7513 C.3     1  UNL1        0.0188
     15 C         143.3474  142.0260  166.1453 C.3     1  UNL1        0.0724
     16 C         142.4579  142.9037  165.3155 C.3     1  UNL1        0.0173
     17 C         140.9947  142.5943  165.2008 C.3     1  UNL1        0.0014
     18 C         140.0001  143.3563  166.0255 C.3     1  UNL1        0.0000
     19 C         139.0901  144.3531  165.3711 C.3     1  UNL1        0.0000
     20 C         137.7762  144.2340  163.1329 C.3     1  UNL1        0.0000
     21 C         137.9024  143.8816  164.5855 C.3     1  UNL1        0.0000
@<TRIPOS>BOND
     1    20    21    1
     2    21    19    1
     3    19    18    1
     4    18    17    1
     5    17    16    1
     6    16    15    1
     7    15    12    1
     8    12    13    1
     9    13    14    1
    10    12     1    1
    11     1     2    1
    12     2     3    2
    13     3     4    1
    14     4     5    1
    15     5     6   ar
    16     6     7   ar
    17     7     8   ar
    18     8     9    1
    19     8    10   ar
    20    10    11   ar
    21    11     5   ar
@<TRIPOS>MOLECULE
*****
 21 21 0 0 0
SMALL
GASTEIGER

@<TRIPOS>ATOM
      1 C         137.5175  141.6882  162.5716 C.3     1  UNL1        0.0986
      2 C         137.8016  140.8988  163.8151 C.2     1  UNL1       -0.0130
      3 C         138.4005  139.5273  163.7122 C.2     1  UNL1       -0.0246
      4 C         138.6846  138.7379  164.9556 C.3     1  UNL1        0.0520
      5 C         139.7189  139.2191  165.9296 C.ar    1  UNL1       -0.0178
      6 C         139.2953  139.8433  167.2261 C.ar    1  UNL1       -0.0031
      7 C         140.3296  140.3245  168.2001 C.ar    1  UNL1        0.0111
      8 C         141.7875  140.1815  167.8776 C.ar    1  UNL1        0.0577
      9 CL        142.8218  140.6628  168.8515 Cl      1  UNL1       -0.0822
     10 C         142.2111  139.5574  166.5811 C.ar    1  UNL1        0.0111
     11 C         141.1768  139.0761  165.6071 C.ar    1  UNL1       -0.0031
     12 N         138.2397  142.9788  162.3212 N.3     1  UNL1       -0.2690
     13 C         139.3006  143.0516  161.2634 C.3     1  UNL1        0.0724
     14 C         140.5545  142.2401  161.4016 C.3     1  UNL1        0.0188
     15 C         137.9010  144.1967  163.1288 C.3     1  UNL1        0.0724
     16 C         138.9124  144.7754  164.0734 C.3     1  UNL1        0.0173
     17 C         138.9184  144.3577  165.5140 C.3     1  UNL1        0.0014
     18 C         139.9211  143.3533  165.9995 C.3     1  UNL1        0.0000
     19 C         140.8352  142.6739  165.0234 C.3     1  UNL1        0.0000
     20 C         142.8360  144.0992  164.1776 C.3     1  UNL1        0.0000
     21 C         142.3025  142.9850  165.0285 C.3     1  UNL1        0.0000
@<TRIPOS>BOND
     1    20    21    1
     2    21    19    1
     3    19    18    1
     4    18    17    1
     5    17    16    1
     6    16    15    1
     7    15    12    1
     8    12    13    1
     9    13    14    1
    10    12     1    1
    11     1     2    1
    12     2     3    2
    13     3     4    1
    14     4     5    1
    15     5     6   ar
    16     6     7   ar
    17     7     8   ar
    18     8     9    1
    19     8    10   ar
    20    10    11   ar
    21    11     5   ar
@<TRIPOS>MOLECULE
*****
 21 21 0 0 0
SMALL
GASTEIGER

@<TRIPOS>ATOM
      1 C         141.0436  137.4165  163.3494 C.3     1  UNL1        0.0986
      2 C         141.5111  137.6225  164.7598 C.2     1  UNL1       -0.0130
      3 C         142.8184  138.3090  165.0239 C.2     1  UNL1       -0.0246
      4 C         143.2859  138.5150  166.4342 C.3     1  UNL1        0.0520
      5 C         142.8079  139.7020  167.2169 C.ar    1  UNL1       -0.0178
      6 C         142.3296  139.5268  168.6278 C.ar    1  UNL1       -0.0031
      7 C         141.8517  140.7137  169.4105 C.ar    1  UNL1        0.0111
      8 C         141.8521  142.0759  168.7824 C.ar    1  UNL1        0.0577
      9 CL        141.3741  143.2628  169.5652 Cl      1  UNL1       -0.0822
     10 C         142.3303  142.2511  167.3716 C.ar    1  UNL1        0.0111
     11 C         142.8083  141.0641  166.5889 C.ar    1  UNL1       -0.0031
     12 N         140.0261  138.3437  162.7536 N.3     1  UNL1       -0.2690
     13 C         138.5965  137.9075  162.6280 C.3     1  UNL1        0.0724
     14 C         137.6785  138.6120  161.6735 C.3     1  UNL1        0.0188
     15 C         140.4384  139.7072  162.2833 C.3     1  UNL1        0.0724
     16 C         140.6869  140.8007  163.2795 C.3     1  UNL1        0.0173
     17 C         139.5376  141.4108  164.0258 C.3     1  UNL1        0.0014
     18 C         138.7837  140.5983  165.0365 C.3     1  UNL1        0.0000
     19 C         139.2801  140.5103  166.4491 C.3     1  UNL1        0.0000
     20 C         137.6837  138.5208  166.9427 C.3     1  UNL1        0.0000
     21 C         138.8709  139.3577  167.3175 C.3     1  UNL1        0.0000
@<TRIPOS>BOND
     1    20    21    1
     2    21    19    1
     3    19    18    1
     4    18    17    1
     5    17    16    1
     6    16    15    1
     7    15    12    1
     8    12    13    1
     9    13    14    1
    10    12     1    1
    11     1     2    1
    12     2     3    2
    13     3     4    1
    14     4     5    1
    15     5     6   ar
    16     6     7   ar
    17     7     8   ar
    18     8     9    1
    19     8    10   ar
    20    10    11   ar
    21    11     5   ar
@<TRIPOS>MOLECULE
*****
 21 21 0 0 0
SMALL
GASTEIGER

@<TRIPOS>ATOM
      1 C         139.9277  141.0903  170.2672 C.3     1  UNL1        0.0986
      2 C         138.9256  140.3077  169.4712 C.2     1  UNL1       -0.0130
      3 C         139.2862  139.7942  168.1088 C.2     1  UNL1       -0.0246
      4 C         138.2842  139.0117  167.3128 C.3     1  UNL1        0.0520
      5 C         138.3996  138.9462  165.8186 C.ar    1  UNL1       -0.0178
      6 C         138.7875  137.6596  165.1521 C.ar    1  UNL1       -0.0031
      7 C         138.9029  137.5941  163.6580 C.ar    1  UNL1        0.0111
      8 C         138.6304  138.8151  162.8304 C.ar    1  UNL1        0.0577
      9 CL        138.7458  138.7495  161.3363 Cl      1  UNL1       -0.0822
     10 C         138.2426  140.1016  163.4970 C.ar    1  UNL1        0.0111
     11 C         138.1272  140.1672  164.9911 C.ar    1  UNL1       -0.0031
     12 N         141.0385  141.8165  169.5682 N.3     1  UNL1       -0.2690
     13 C         142.4542  141.3437  169.7171 C.3     1  UNL1        0.0724
     14 C         143.5903  142.3011  169.5111 C.3     1  UNL1        0.0188
     15 C         140.7336  143.0157  168.7202 C.3     1  UNL1        0.0724
     16 C         140.4642  142.8486  167.2541 C.3     1  UNL1        0.0173
     17 C         141.5918  142.5376  166.3151 C.3     1  UNL1        0.0014
     18 C         141.4919  141.3645  165.3856 C.3     1  UNL1        0.0000
     19 C         142.0103  140.0232  165.8122 C.3     1  UNL1        0.0000
     20 C         142.4480  138.2906  163.9263 C.3     1  UNL1        0.0000
     21 C         142.9672  139.2745  164.9325 C.3     1  UNL1        0.0000
@<TRIPOS>BOND
     1    20    21    1
     2    21    19    1
     3    19    18    1
     4    18    17    1
     5    17    16    1
     6    16    15    1
     7    15    12    1
     8    12    13    1
     9    13    14    1
    10    12     1    1
    11     1     2    1
    12     2     3    2
    13     3     4    1
    14     4     5    1
    15     5     6   ar
    16     6     7   ar
    17     7     8   ar
    18     8     9    1
    19     8    10   ar
    20    10    11   ar
    21    11     5   ar
@<TRIPOS>MOLECULE
*****
 21 21 0 0 0
SMALL
GASTEIGER

@<TRIPOS>ATOM
      1 C         144.0292  142.6329  164.0817 C.3     1  UNL1        0.0986
      2 C         142.9624  142.5244  165.1307 C.2     1  UNL1       -0.0130
      3 C         141.6256  143.1680  164.9101 C.2     1  UNL1       -0.0246
      4 C         140.5588  143.0596  165.9590 C.3     1  UNL1        0.0520
      5 C         139.8373  141.7605  166.1635 C.ar    1  UNL1       -0.0178
      6 C         139.9597  141.0321  167.4690 C.ar    1  UNL1       -0.0031
      7 C         139.2382  139.7330  167.6736 C.ar    1  UNL1        0.0111
      8 C         138.3943  139.1624  166.5726 C.ar    1  UNL1        0.0577
      9 CL        137.6728  137.8633  166.7771 Cl      1  UNL1       -0.0822
     10 C         138.2719  139.8908  165.2671 C.ar    1  UNL1        0.0111
     11 C         138.9934  141.1899  165.0626 C.ar    1  UNL1       -0.0031
     12 N         144.4845  141.4077  163.3457 N.3     1  UNL1       -0.2690
     13 C         144.2141  141.2715  161.8766 C.3     1  UNL1        0.0724
     14 C         142.8028  141.2922  161.3687 C.3     1  UNL1        0.0188
     15 C         145.2104  140.3187  164.0788 C.3     1  UNL1        0.0724
     16 C         144.5326  139.0049  164.3326 C.3     1  UNL1        0.0173
     17 C         143.5602  138.8693  165.4666 C.3     1  UNL1        0.0014
     18 C         142.0849  138.8941  165.1965 C.3     1  UNL1        0.0000
     19 C         141.3724  137.6329  164.8073 C.3     1  UNL1        0.0000
     20 C         141.3981  137.7207  162.2108 C.3     1  UNL1        0.0000
     21 C         140.6451  137.5559  163.4976 C.3     1  UNL1        0.0000
@<TRIPOS>BOND
     1    20    21    1
     2    21    19    1
     3    19    18    1
     4    18    17    1
     5    17    16    1
     6    16    15    1
     7    15    12    1
     8    12    13    1
     9    13    14    1
    10    12     1    1
    11     1     2    1
    12     2     3    2
    13     3     4    1
    14     4     5    1
    15     5     6   ar
    16     6     7   ar
    17     7     8   ar
    18     8     9    1
    19     8    10   ar
    20    10    11   ar
    21    11     5   ar
@<TRIPOS>MOLECULE
*****
 21 21 0 0 0
SMALL
GASTEIGER

@<TRIPOS>ATOM
      1 C         139.2649  140.1324  169.2056 C.3     1  UNL1        0.0986
      2 C         139.1638  140.0801  167.7099 C.2     1  UNL1       -0.0130
      3 C         138.2911  139.0523  167.0526 C.2     1  UNL1       -0.0246
      4 C         138.1900  138.9999  165.5570 C.3     1  UNL1        0.0520
      5 C         139.4181  138.7588  164.7302 C.ar    1  UNL1       -0.0178
      6 C         140.1854  137.4790  164.8826 C.ar    1  UNL1       -0.0031
      7 C         141.4135  137.2378  164.0558 C.ar    1  UNL1        0.0111
      8 C         141.8743  138.2765  163.0766 C.ar    1  UNL1        0.0577
      9 CL        143.1025  138.0354  162.2499 Cl      1  UNL1       -0.0822
     10 C         141.1070  139.5564  162.9243 C.ar    1  UNL1        0.0111
     11 C         139.8789  139.7975  163.7511 C.ar    1  UNL1       -0.0031
     12 N         140.4460  140.7908  169.8549 N.3     1  UNL1       -0.2690
     13 C         140.3187  142.1772  170.4132 C.3     1  UNL1        0.0724
     14 C         140.5462  143.3662  169.5276 C.3     1  UNL1        0.0188
     15 C         141.7544  140.0628  169.9459 C.3     1  UNL1        0.0724
     16 C         142.7316  140.1318  168.8099 C.3     1  UNL1        0.0173
     17 C         142.4461  139.4042  167.5297 C.3     1  UNL1        0.0014
     18 C         143.0840  139.8587  166.2504 C.3     1  UNL1        0.0000
     19 C         142.8489  141.2526  165.7490 C.3     1  UNL1        0.0000
     20 C         141.0017  143.0187  165.2808 C.3     1  UNL1        0.0000
     21 C         141.6389  142.0171  166.1979 C.3     1  UNL1        0.0000
@<TRIPOS>BOND
     1    20    21    1
     2    21    19    1
     3    19    18    1
     4    18    17    1
     5    17    16    1
     6    16    15    1
     7    15    12    1
     8    12    13    1
     9    13    14    1
    10    12     1    1
    11     1     2    1
    12     2     3    2
    13     3     4    1
    14     4     5    1
    15     5     6   ar
    16     6     7   ar
    17     7     8   ar
    18     8     9    1
    19     8    10   ar
    20    10    11   ar
    21    11     5   ar
@<TRIPOS>MOLECULE
*****
 21 21 0 0 0
SMALL
GASTEIGER

@<TRIPOS>ATOM
      1 C         141.5883  137.8276  164.6310 C.3     1  UNL1        0.0986
      2 C         140.3938  138.7310  164.5457 C.2     1  UNL1       -0.0130
      3 C         139.4197  138.7958  165.6845 C.2     1  UNL1       -0.0246
      4 C         138.2253  139.6992  165.5992 C.3     1  UNL1        0.0520
      5 C         138.3299  141.0158  164.8881 C.ar    1  UNL1       -0.0178
      6 C         137.5656  141.2449  163.6179 C.ar    1  UNL1       -0.0031
      7 C         137.6703  142.5615  162.9068 C.ar    1  UNL1        0.0111
      8 C         138.5392  143.6489  163.4657 C.ar    1  UNL1        0.0577
      9 CL        138.6438  144.9654  162.7546 Cl      1  UNL1       -0.0822
     10 C         139.3035  143.4197  164.7359 C.ar    1  UNL1        0.0111
     11 C         139.1989  142.1031  165.4470 C.ar    1  UNL1       -0.0031
     12 N         142.9362  138.3957  164.9630 N.3     1  UNL1       -0.2690
     13 C         143.8528  138.8438  163.8635 C.3     1  UNL1        0.0724
     14 C         144.9930  139.7697  164.1680 C.3     1  UNL1        0.0188
     15 C         143.3676  138.5159  166.3947 C.3     1  UNL1        0.0724
     16 C         142.8073  139.6073  167.2577 C.3     1  UNL1        0.0173
     17 C         142.4974  140.9491  166.6632 C.3     1  UNL1        0.0014
     18 C         142.8401  142.2003  167.4162 C.3     1  UNL1        0.0000
     19 C         142.8272  142.2003  168.9161 C.3     1  UNL1        0.0000
     20 C         140.5065  143.3344  169.1955 C.3     1  UNL1        0.0000
     21 C         141.5292  142.3378  169.6551 C.3     1  UNL1        0.0000
@<TRIPOS>BOND
     1    20    21    1
     2    21    19    1
     3    19    18    1
     4    18    17    1
     5    17    16    1
     6    16    15    1
     7    15    12    1
     8    12    13    1
     9    13    14    1
    10    12     1    1
    11     1     2    1
    12     2     3    2
    13     3     4    1
    14     4     5    1
    15     5     6   ar
    16     6     7   ar
    17     7     8   ar
    18     8     9    1
    19     8    10   ar
    20    10    11   ar
    21    11     5   ar
@<TRIPOS>MOLECULE
*****
 21 21 0 0 0
SMALL
GASTEIGER

@<TRIPOS>ATOM
      1 C         141.6579  139.7531  168.9952 C.3     1  UNL1        0.0986
      2 C         142.7510  139.7121  167.9687 C.2     1  UNL1       -0.0130
      3 C         142.5521  138.9516  166.6912 C.2     1  UNL1       -0.0246
      4 C         143.6451  138.9106  165.6648 C.3     1  UNL1        0.0520
      5 C         143.8796  140.0925  164.7714 C.ar    1  UNL1       -0.0178
      6 C         145.2295  140.3101  164.1545 C.ar    1  UNL1       -0.0031
      7 C         145.4640  141.4920  163.2611 C.ar    1  UNL1        0.0111
      8 C         144.3488  142.4562  162.9846 C.ar    1  UNL1        0.0577
      9 CL        144.5834  143.6380  162.0911 Cl      1  UNL1       -0.0822
     10 C         142.9990  142.2385  163.6014 C.ar    1  UNL1        0.0111
     11 C         142.7644  141.0567  164.4948 C.ar    1  UNL1       -0.0031
     12 N         140.4043  140.5311  168.7251 N.3     1  UNL1       -0.2690
     13 C         140.2916  141.9548  169.1839 C.3     1  UNL1        0.0724
     14 C         141.5000  142.6713  169.7094 C.3     1  UNL1        0.0188
     15 C         139.2632  139.8855  167.9962 C.3     1  UNL1        0.0724
     16 C         139.0903  140.1114  166.5234 C.3     1  UNL1        0.0173
     17 C         138.3602  139.1002  165.6902 C.3     1  UNL1        0.0014
     18 C         139.0569  137.8466  165.2508 C.3     1  UNL1        0.0000
     19 C         139.6140  137.7456  163.8618 C.3     1  UNL1        0.0000
     20 C         141.8614  137.8132  162.5600 C.3     1  UNL1        0.0000
     21 C         141.0073  137.2328  163.6480 C.3     1  UNL1        0.0000
@<TRIPOS>BOND
     1    20    21    1
     2    21    19    1
     3    19    18    1
     4    18    17    1
     5    17    16    1
     6    16    15    1
     7    15    12    1
     8    12    13    1
     9    13    14    1
    10    12     1    1
    11     1     2    1
    12     2     3    2
    13     3     4    1
    14     4     5    1
    15     5     6   ar
    16     6     7   ar
    17     7     8   ar
    18     8     9    1
    19     8    10   ar
    20    10    11   ar
    21    11     5   ar
