@<TRIPOS>MOLECULE
*****
 39 43 0 0 0
SMALL
GASTEIGER

@<TRIPOS>ATOM
      1 C         140.9287  141.6713  165.6974 C.3     1  UNL1        0.0761
      2 C         139.9761  143.8571  164.6655 C.ar    1  UNL1        0.1351
      3 C         139.8532  144.7999  163.5054 C.ar    1  UNL1        0.0366
      4 C         140.5600  144.4997  162.2168 C.ar    1  UNL1        0.0030
      5 C         140.4371  145.4425  161.0566 C.ar    1  UNL1        0.0008
      6 C         141.1439  145.1422  159.7682 C.ar    1  UNL1        0.0103
      7 C         141.9737  143.8992  159.6398 C.ar    1  UNL1        0.0684
      8 C         142.0966  142.9565  160.8000 C.ar    1  UNL1        0.0103
      9 C         141.3898  143.2567  162.0885 C.ar    1  UNL1        0.0006
     10 C         141.5127  142.3139  163.2487 C.ar    1  UNL1       -0.0009
     11 C         140.8058  142.6141  164.5372 C.ar    1  UNL1        0.0181
     12 C         138.1609  145.1676  165.9838 C.3     1  UNL1        0.2525
     13 O         139.2693  144.1573  165.9541 O.3     1  UNL1       -0.4717
     14 C         142.6805  143.5990  158.3513 C.1     1  UNL1        0.1004
     15 N         143.3874  143.2989  157.0628 N.1     1  UNL1       -0.1908
     16 C         140.0197  140.4823  165.7972 C.ar    1  UNL1       -0.0160
     17 C         139.3005  140.1938  167.0815 C.ar    1  UNL1       -0.0039
     18 C         138.3914  139.0048  167.1813 C.ar    1  UNL1       -0.0006
     19 C         138.2016  138.1044  165.9968 C.ar    1  UNL1       -0.0043
     20 C         138.9208  138.3929  164.7124 C.ar    1  UNL1       -0.0222
     21 C         138.7309  137.4925  163.5278 C.3     1  UNL1        0.0310
     22 C         139.8298  139.5819  164.6126 C.ar    1  UNL1       -0.0081
     23 C         141.9607  141.9175  166.7578 C.3     1  UNL1        0.1187
     24 O         141.0397  142.8939  167.4274 O.3     1  UNL1       -0.3819
     25 H         141.0552  142.7477  168.3862 H       1  UNL1        0.2107
     26 C         142.8817  140.9411  166.0883 C.ar    1  UNL1        0.0395
     27 C         142.7807  139.4779  166.4029 C.ar    1  UNL1        0.0012
     28 C         143.7017  138.5015  165.7333 C.ar    1  UNL1        0.0031
     29 C         144.7237  138.9882  164.7491 C.ar    1  UNL1        0.0402
     30 C         144.8247  140.4513  164.4345 C.ar    1  UNL1        0.1762
     31 C         143.9037  141.4278  165.1041 C.ar    1  UNL1        0.1746
     32 O         144.2357  142.8002  164.5978 O.3     1  UNL1       -0.4349
     33 C         145.3619  142.6720  163.6154 C.3     1  UNL1        0.4294
     34 O         145.7259  141.2203  163.5144 O.3     1  UNL1       -0.4346
     35 C         142.9926  142.1637  167.8182 C.3     1  UNL1        0.0492
     36 C         142.5659  142.4754  169.2221 C.3     1  UNL1        0.0750
     37 N         141.8285  141.4471  170.0277 N.3     1  UNL1       -0.2702
     38 C         142.3090  140.0263  170.0503 C.3     1  UNL1        0.0897
     39 C         140.6108  141.8395  170.8105 C.3     1  UNL1        0.0897
@<TRIPOS>BOND
     1    12    13    1
     2    13     2    1
     3     2     3   ar
     4     3     4   ar
     5     4     5   ar
     6     5     6   ar
     7     6     7   ar
     8     7    14    1
     9    14    15    3
    10     7     8   ar
    11     8     9   ar
    12     9    10   ar
    13    10    11   ar
    14     1    11    1
    15     1    16    1
    16    16    17   ar
    17    17    18   ar
    18    18    19   ar
    19    19    20   ar
    20    20    21    1
    21    20    22   ar
    22     1    23    1
    23    23    24    1
    24    23    35    1
    25    35    36    1
    26    36    37    1
    27    37    38    1
    28    37    39    1
    29    23    26    1
    30    26    27   ar
    31    27    28   ar
    32    28    29   ar
    33    29    30   ar
    34    30    31   ar
    35    31    32    1
    36    32    33    1
    37    33    34    1
    38    11     2   ar
    39    22    16   ar
    40    31    26   ar
    41     9     4   ar
    42    34    30    1
    43    24    25    1
@<TRIPOS>MOLECULE
*****
 39 43 0 0 0
SMALL
GASTEIGER

@<TRIPOS>ATOM
      1 C         139.6402  140.6913  164.3841 C.3     1  UNL1        0.0761
      2 C         139.2055  139.9200  166.8267 C.ar    1  UNL1        0.1351
      3 C         139.5992  139.9059  168.2740 C.ar    1  UNL1        0.0366
      4 C         140.8213  140.6491  168.7262 C.ar    1  UNL1        0.0030
      5 C         141.2150  140.6350  170.1735 C.ar    1  UNL1        0.0008
      6 C         142.4370  141.3781  170.6256 C.ar    1  UNL1        0.0103
      7 C         143.2653  142.1353  169.6304 C.ar    1  UNL1        0.0684
      8 C         142.8716  142.1494  168.1831 C.ar    1  UNL1        0.0103
      9 C         141.6496  141.4063  167.7310 C.ar    1  UNL1        0.0006
     10 C         141.2559  141.4204  166.2836 C.ar    1  UNL1       -0.0009
     11 C         140.0339  140.6773  165.8315 C.ar    1  UNL1        0.0181
     12 C         137.3498  138.1577  167.2743 C.3     1  UNL1        0.2525
     13 O         137.9835  139.1769  166.3746 O.3     1  UNL1       -0.4717
     14 C         144.4874  142.8784  170.0825 C.1     1  UNL1        0.1004
     15 N         145.7094  143.6215  170.5347 N.1     1  UNL1       -0.1908
     16 C         139.1919  141.9703  163.7412 C.ar    1  UNL1       -0.0160
     17 C         138.2080  142.8582  164.4438 C.ar    1  UNL1       -0.0039
     18 C         137.7597  144.1372  163.8009 C.ar    1  UNL1       -0.0006
     19 C         138.2953  144.5282  162.4555 C.ar    1  UNL1       -0.0043
     20 C         139.2792  143.6403  161.7529 C.ar    1  UNL1       -0.0222
     21 C         139.8148  144.0314  160.4075 C.3     1  UNL1        0.0310
     22 C         139.7275  142.3613  162.3957 C.ar    1  UNL1       -0.0081
     23 C         139.6947  139.4265  163.5797 C.3     1  UNL1        0.1187
     24 O         138.2389  139.5735  163.2498 O.3     1  UNL1       -0.3819
     25 H         138.0987  139.3768  162.3104 H       1  UNL1        0.2107
     26 C         141.1506  139.2795  163.9095 C.ar    1  UNL1        0.0395
     27 C         141.5739  138.4383  165.0771 C.ar    1  UNL1        0.0012
     28 C         143.0297  138.2913  165.4069 C.ar    1  UNL1        0.0031
     29 C         144.0623  138.9855  164.5692 C.ar    1  UNL1        0.0402
     30 C         143.6391  139.8267  163.4017 C.ar    1  UNL1        0.1762
     31 C         142.1832  139.9737  163.0718 C.ar    1  UNL1        0.1746
     32 O         142.0679  140.8622  161.8688 O.3     1  UNL1       -0.4349
     33 C         143.4525  141.2644  161.4551 C.3     1  UNL1        0.4294
     34 O         144.4235  140.6244  162.4025 O.3     1  UNL1       -0.4346
     35 C         139.7493  138.1617  162.7752 C.3     1  UNL1        0.0492
     36 C         138.9745  138.0527  161.4954 C.3     1  UNL1        0.0750
     37 N         139.3552  138.8953  160.3142 N.3     1  UNL1       -0.2702
     38 C         140.6649  138.6655  159.6200 C.3     1  UNL1        0.0897
     39 C         138.4263  139.9676  159.8272 C.3     1  UNL1        0.0897
@<TRIPOS>BOND
     1    12    13    1
     2    13     2    1
     3     2     3   ar
     4     3     4   ar
     5     4     5   ar
     6     5     6   ar
     7     6     7   ar
     8     7    14    1
     9    14    15    3
    10     7     8   ar
    11     8     9   ar
    12     9    10   ar
    13    10    11   ar
    14     1    11    1
    15     1    16    1
    16    16    17   ar
    17    17    18   ar
    18    18    19   ar
    19    19    20   ar
    20    20    21    1
    21    20    22   ar
    22     1    23    1
    23    23    24    1
    24    23    35    1
    25    35    36    1
    26    36    37    1
    27    37    38    1
    28    37    39    1
    29    23    26    1
    30    26    27   ar
    31    27    28   ar
    32    28    29   ar
    33    29    30   ar
    34    30    31   ar
    35    31    32    1
    36    32    33    1
    37    33    34    1
    38    11     2   ar
    39    22    16   ar
    40    31    26   ar
    41     9     4   ar
    42    34    30    1
    43    24    25    1
@<TRIPOS>MOLECULE
*****
 39 43 0 0 0
SMALL
GASTEIGER

@<TRIPOS>ATOM
      1 C         141.0638  140.4971  165.6414 C.3     1  UNL1        0.0761
      2 C         142.5124  139.5211  163.7182 C.ar    1  UNL1        0.1351
      3 C         142.6880  139.1821  162.2676 C.ar    1  UNL1        0.0366
      4 C         141.5904  139.4802  161.2895 C.ar    1  UNL1        0.0030
      5 C         141.7660  139.1413  159.8389 C.ar    1  UNL1        0.0008
      6 C         140.6685  139.4394  158.8609 C.ar    1  UNL1        0.0103
      7 C         139.3954  140.0765  159.3335 C.ar    1  UNL1        0.0684
      8 C         139.2198  140.4155  160.7841 C.ar    1  UNL1        0.0103
      9 C         140.3174  140.1173  161.7621 C.ar    1  UNL1        0.0006
     10 C         140.1418  140.4563  163.2128 C.ar    1  UNL1       -0.0009
     11 C         141.2394  140.1582  164.1908 C.ar    1  UNL1        0.0181
     12 C         145.0113  139.6767  164.4123 C.3     1  UNL1        0.2525
     13 O         143.6100  139.2229  164.6962 O.3     1  UNL1       -0.4717
     14 C         138.2978  140.3746  158.3555 C.1     1  UNL1        0.1004
     15 N         137.2004  140.6728  157.3774 N.1     1  UNL1       -0.1908
     16 C         139.9296  139.8987  166.4195 C.ar    1  UNL1       -0.0160
     17 C         139.0113  138.9092  165.7657 C.ar    1  UNL1       -0.0039
     18 C         137.8771  138.3107  166.5438 C.ar    1  UNL1       -0.0006
     19 C         137.6612  138.7018  167.9757 C.ar    1  UNL1       -0.0043
     20 C         138.5796  139.6913  168.6296 C.ar    1  UNL1       -0.0222
     21 C         138.3637  140.0824  170.0616 C.3     1  UNL1        0.0310
     22 C         139.7138  140.2898  167.8515 C.ar    1  UNL1       -0.0081
     23 C         142.0225  141.4345  166.3139 C.3     1  UNL1        0.1187
     24 O         142.6131  140.2846  167.0748 O.3     1  UNL1       -0.3819
     25 H         143.5802  140.3593  167.0743 H       1  UNL1        0.2107
     26 C         141.4319  142.5844  165.5530 C.ar    1  UNL1        0.0395
     27 C         140.0738  143.1066  165.9178 C.ar    1  UNL1        0.0012
     28 C         139.4833  144.2565  165.1569 C.ar    1  UNL1        0.0031
     29 C         140.2507  144.8841  164.0313 C.ar    1  UNL1        0.0402
     30 C         141.6086  144.3619  163.6665 C.ar    1  UNL1        0.1762
     31 C         142.1993  143.2120  164.4274 C.ar    1  UNL1        0.1746
     32 O         143.5489  142.9146  163.8441 O.3     1  UNL1       -0.4349
     33 C         143.7923  143.8806  162.7227 C.3     1  UNL1        0.4294
     34 O         142.5932  144.7751  162.6130 O.3     1  UNL1       -0.4346
     35 C         142.9811  142.3719  166.9864 C.3     1  UNL1        0.0492
     36 C         143.3214  142.1846  168.4352 C.3     1  UNL1        0.0750
     37 N         142.2325  142.1800  169.4669 N.3     1  UNL1       -0.2702
     38 C         142.1829  141.0938  170.5002 C.3     1  UNL1        0.0897
     39 C         141.1931  143.2614  169.4652 C.3     1  UNL1        0.0897
@<TRIPOS>BOND
     1    12    13    1
     2    13     2    1
     3     2     3   ar
     4     3     4   ar
     5     4     5   ar
     6     5     6   ar
     7     6     7   ar
     8     7    14    1
     9    14    15    3
    10     7     8   ar
    11     8     9   ar
    12     9    10   ar
    13    10    11   ar
    14     1    11    1
    15     1    16    1
    16    16    17   ar
    17    17    18   ar
    18    18    19   ar
    19    19    20   ar
    20    20    21    1
    21    20    22   ar
    22     1    23    1
    23    23    24    1
    24    23    35    1
    25    35    36    1
    26    36    37    1
    27    37    38    1
    28    37    39    1
    29    23    26    1
    30    26    27   ar
    31    27    28   ar
    32    28    29   ar
    33    29    30   ar
    34    30    31   ar
    35    31    32    1
    36    32    33    1
    37    33    34    1
    38    11     2   ar
    39    22    16   ar
    40    31    26   ar
    41     9     4   ar
    42    34    30    1
    43    24    25    1
@<TRIPOS>MOLECULE
*****
 39 43 0 0 0
SMALL
GASTEIGER

@<TRIPOS>ATOM
      1 C         142.0708  141.7227  162.7366 C.3     1  UNL1        0.0761
      2 C         143.3702  142.3756  164.8896 C.ar    1  UNL1        0.1351
      3 C         143.4584  142.4356  166.3858 C.ar    1  UNL1        0.0366
      4 C         142.3353  141.9026  167.2253 C.ar    1  UNL1        0.0030
      5 C         142.4235  141.9626  168.7214 C.ar    1  UNL1        0.0008
      6 C         141.3004  141.4297  169.5609 C.ar    1  UNL1        0.0103
      7 C         140.0892  140.8368  168.9041 C.ar    1  UNL1        0.0684
      8 C         140.0010  140.7768  167.4079 C.ar    1  UNL1        0.0103
      9 C         141.1240  141.3097  166.5685 C.ar    1  UNL1        0.0006
     10 C         141.0359  141.2497  165.0723 C.ar    1  UNL1       -0.0009
     11 C         142.1589  141.7827  164.2328 C.ar    1  UNL1        0.0181
     12 C         145.6030  141.9974  163.6162 C.3     1  UNL1        0.2525
     13 O         144.4933  142.9086  164.0501 O.3     1  UNL1       -0.4717
     14 C         138.9661  140.3038  169.7436 C.1     1  UNL1        0.1004
     15 N         137.8431  139.7709  170.5831 N.1     1  UNL1       -0.1908
     16 C         142.4805  140.4757  162.0105 C.ar    1  UNL1       -0.0160
     17 C         142.8588  139.2475  162.7840 C.ar    1  UNL1       -0.0039
     18 C         143.2686  138.0005  162.0580 C.ar    1  UNL1       -0.0006
     19 C         143.3001  137.9818  160.5585 C.ar    1  UNL1       -0.0043
     20 C         142.9218  139.2100  159.7849 C.ar    1  UNL1       -0.0222
     21 C         142.9532  139.1913  158.2854 C.3     1  UNL1        0.0310
     22 C         142.5120  140.4570  160.5109 C.ar    1  UNL1       -0.0081
     23 C         141.5729  142.9097  161.9664 C.3     1  UNL1        0.1187
     24 O         142.9821  143.2523  161.5834 O.3     1  UNL1       -0.3819
     25 H         143.0120  143.4956  160.6449 H       1  UNL1        0.2107
     26 C         140.1637  142.5671  162.3495 C.ar    1  UNL1        0.0395
     27 C         139.4569  141.4316  161.6705 C.ar    1  UNL1        0.0012
     28 C         138.0477  141.0890  162.0535 C.ar    1  UNL1        0.0031
     29 C         137.3452  141.8819  163.1155 C.ar    1  UNL1        0.0402
     30 C         138.0520  143.0174  163.7945 C.ar    1  UNL1        0.1762
     31 C         139.4613  143.3600  163.4115 C.ar    1  UNL1        0.1746
     32 O         139.8992  144.5248  164.2491 O.3     1  UNL1       -0.4349
     33 C         138.7606  144.9020  165.1498 C.3     1  UNL1        0.4294
     34 O         137.6190  143.9704  164.8689 O.3     1  UNL1       -0.4346
     35 C         141.0750  144.0966  161.1963 C.3     1  UNL1        0.0492
     36 C         141.7450  144.4937  159.9144 C.3     1  UNL1        0.0750
     37 N         141.8100  143.5252  158.7707 N.3     1  UNL1       -0.2702
     38 C         143.1136  143.2765  158.0717 C.3     1  UNL1        0.0897
     39 C         140.5713  142.8055  158.3262 C.3     1  UNL1        0.0897
@<TRIPOS>BOND
     1    12    13    1
     2    13     2    1
     3     2     3   ar
     4     3     4   ar
     5     4     5   ar
     6     5     6   ar
     7     6     7   ar
     8     7    14    1
     9    14    15    3
    10     7     8   ar
    11     8     9   ar
    12     9    10   ar
    13    10    11   ar
    14     1    11    1
    15     1    16    1
    16    16    17   ar
    17    17    18   ar
    18    18    19   ar
    19    19    20   ar
    20    20    21    1
    21    20    22   ar
    22     1    23    1
    23    23    24    1
    24    23    35    1
    25    35    36    1
    26    36    37    1
    27    37    38    1
    28    37    39    1
    29    23    26    1
    30    26    27   ar
    31    27    28   ar
    32    28    29   ar
    33    29    30   ar
    34    30    31   ar
    35    31    32    1
    36    32    33    1
    37    33    34    1
    38    11     2   ar
    39    22    16   ar
    40    31    26   ar
    41     9     4   ar
    42    34    30    1
    43    24    25    1
@<TRIPOS>MOLECULE
*****
 39 43 0 0 0
SMALL
GASTEIGER

@<TRIPOS>ATOM
      1 C         140.5666  140.7626  162.5858 C.3     1  UNL1        0.0761
      2 C         139.2330  139.7460  164.5702 C.ar    1  UNL1        0.1351
      3 C         138.9791  139.6369  166.0446 C.ar    1  UNL1        0.0366
      4 C         139.8052  140.4355  167.0089 C.ar    1  UNL1        0.0030
      5 C         139.5514  140.3264  168.4832 C.ar    1  UNL1        0.0008
      6 C         140.3775  141.1250  169.4475 C.ar    1  UNL1        0.0103
      7 C         141.4574  142.0326  168.9375 C.ar    1  UNL1        0.0684
      8 C         141.7112  142.1416  167.4632 C.ar    1  UNL1        0.0103
      9 C         140.8851  141.3431  166.4989 C.ar    1  UNL1        0.0006
     10 C         141.1389  141.4521  165.0245 C.ar    1  UNL1       -0.0009
     11 C         140.3128  140.6536  164.0602 C.ar    1  UNL1        0.0181
     12 C         138.8521  137.5755  163.1939 C.3     1  UNL1        0.2525
     13 O         138.4069  138.9474  163.6059 O.3     1  UNL1       -0.4717
     14 C         142.2834  142.8312  169.9019 C.1     1  UNL1        0.1004
     15 N         143.1094  143.6297  170.8662 N.1     1  UNL1       -0.1908
     16 C         141.7354  140.0510  161.9714 C.ar    1  UNL1       -0.0160
     17 C         142.3913  138.9167  162.7016 C.ar    1  UNL1       -0.0039
     18 C         143.5601  138.2051  162.0872 C.ar    1  UNL1       -0.0006
     19 C         144.0730  138.6278  160.7425 C.ar    1  UNL1       -0.0043
     20 C         143.4172  139.7621  160.0122 C.ar    1  UNL1       -0.0222
     21 C         143.9301  140.1847  158.6675 C.3     1  UNL1        0.0310
     22 C         142.2484  140.4737  160.6266 C.ar    1  UNL1       -0.0081
     23 C         139.6517  141.5832  161.7260 C.3     1  UNL1        0.1187
     24 O         139.1376  140.3316  161.0786 O.3     1  UNL1       -0.3819
     25 H         138.1725  140.3834  160.9957 H       1  UNL1        0.2107
     26 C         140.1658  142.8348  162.3733 C.ar    1  UNL1        0.0395
     27 C         141.4945  143.3988  161.9654 C.ar    1  UNL1        0.0012
     28 C         142.0086  144.6504  162.6128 C.ar    1  UNL1        0.0031
     29 C         141.1940  145.3380  163.6681 C.ar    1  UNL1        0.0402
     30 C         139.8653  144.7740  164.0760 C.ar    1  UNL1        0.1762
     31 C         139.3512  143.5223  163.4286 C.ar    1  UNL1        0.1746
     32 O         138.0154  143.2034  164.0320 O.3     1  UNL1       -0.4349
     33 C         137.7040  144.2579  165.0523 C.3     1  UNL1        0.4294
     34 O         138.8473  145.2286  165.0795 O.3     1  UNL1       -0.4346
     35 C         138.7367  142.4038  160.8661 C.3     1  UNL1        0.0492
     36 C         138.5331  142.0383  159.4256 C.3     1  UNL1        0.0750
     37 N         139.7080  141.9716  158.4955 N.3     1  UNL1       -0.2702
     38 C         140.6390  143.1419  158.3781 C.3     1  UNL1        0.0897
     39 C         139.9520  140.7347  157.6827 C.3     1  UNL1        0.0897
@<TRIPOS>BOND
     1    12    13    1
     2    13     2    1
     3     2     3   ar
     4     3     4   ar
     5     4     5   ar
     6     5     6   ar
     7     6     7   ar
     8     7    14    1
     9    14    15    3
    10     7     8   ar
    11     8     9   ar
    12     9    10   ar
    13    10    11   ar
    14     1    11    1
    15     1    16    1
    16    16    17   ar
    17    17    18   ar
    18    18    19   ar
    19    19    20   ar
    20    20    21    1
    21    20    22   ar
    22     1    23    1
    23    23    24    1
    24    23    35    1
    25    35    36    1
    26    36    37    1
    27    37    38    1
    28    37    39    1
    29    23    26    1
    30    26    27   ar
    31    27    28   ar
    32    28    29   ar
    33    29    30   ar
    34    30    31   ar
    35    31    32    1
    36    32    33    1
    37    33    34    1
    38    11     2   ar
    39    22    16   ar
    40    31    26   ar
    41     9     4   ar
    42    34    30    1
    43    24    25    1
@<TRIPOS>MOLECULE
*****
 39 43 0 0 0
SMALL
GASTEIGER

@<TRIPOS>ATOM
      1 C         142.0364  141.7666  162.9515 C.3     1  UNL1        0.0761
      2 C         143.2798  142.4294  165.1343 C.ar    1  UNL1        0.1351
      3 C         143.3368  142.4812  166.6323 C.ar    1  UNL1        0.0366
      4 C         142.2073  141.9218  167.4456 C.ar    1  UNL1        0.0030
      5 C         142.2642  141.9735  168.9436 C.ar    1  UNL1        0.0008
      6 C         141.1348  141.4142  169.7568 C.ar    1  UNL1        0.0103
      7 C         139.9483  140.8031  169.0721 C.ar    1  UNL1        0.0684
      8 C         139.8913  140.7513  167.5741 C.ar    1  UNL1        0.0103
      9 C         141.0208  141.3107  166.7609 C.ar    1  UNL1        0.0006
     10 C         140.9638  141.2590  165.2628 C.ar    1  UNL1       -0.0009
     11 C         142.0933  141.8183  164.4495 C.ar    1  UNL1        0.0181
     12 C         145.5381  142.0985  163.8932 C.3     1  UNL1        0.2525
     13 O         144.4093  142.9888  164.3210 O.3     1  UNL1       -0.4717
     14 C         138.8188  140.2437  169.8854 C.1     1  UNL1        0.1004
     15 N         137.6894  139.6844  170.6987 N.1     1  UNL1       -0.1908
     16 C         142.2327  140.4618  162.2381 C.ar    1  UNL1       -0.0160
     17 C         143.1065  139.4018  162.8403 C.ar    1  UNL1       -0.0039
     18 C         143.3029  138.0970  162.1270 C.ar    1  UNL1       -0.0006
     19 C         142.6253  137.8522  160.8113 C.ar    1  UNL1       -0.0043
     20 C         141.7514  138.9122  160.2090 C.ar    1  UNL1       -0.0222
     21 C         141.0739  138.6674  158.8933 C.3     1  UNL1        0.0310
     22 C         141.5551  140.2170  160.9224 C.ar    1  UNL1       -0.0081
     23 C         141.7831  143.0197  162.1669 C.3     1  UNL1        0.1187
     24 O         143.0492  142.7925  161.3954 O.3     1  UNL1       -0.3819
     25 H         142.8902  142.9667  160.4545 H       1  UNL1        0.2107
     26 C         140.5170  143.2469  162.9384 C.ar    1  UNL1        0.0395
     27 C         140.4760  144.2801  164.0251 C.ar    1  UNL1        0.0012
     28 C         139.2099  144.5072  164.7966 C.ar    1  UNL1        0.0031
     29 C         137.9847  143.7013  164.4815 C.ar    1  UNL1        0.0402
     30 C         138.0256  142.6681  163.3948 C.ar    1  UNL1        0.1762
     31 C         139.2918  142.4409  162.6232 C.ar    1  UNL1        0.1746
     32 O         139.0328  141.3608  161.6151 O.3     1  UNL1       -0.4349
     33 C         137.6066  140.9205  161.7636 C.3     1  UNL1        0.4294
     34 O         136.9841  141.7284  162.8635 O.3     1  UNL1       -0.4346
     35 C         141.5298  144.2727  161.3823 C.3     1  UNL1        0.0492
     36 C         141.8158  144.3066  159.9102 C.3     1  UNL1        0.0750
     37 N         141.0479  143.4187  158.9763 N.3     1  UNL1       -0.2702
     38 C         141.7782  142.4653  158.0776 C.3     1  UNL1        0.0897
     39 C         139.5498  143.4843  158.9412 C.3     1  UNL1        0.0897
@<TRIPOS>BOND
     1    12    13    1
     2    13     2    1
     3     2     3   ar
     4     3     4   ar
     5     4     5   ar
     6     5     6   ar
     7     6     7   ar
     8     7    14    1
     9    14    15    3
    10     7     8   ar
    11     8     9   ar
    12     9    10   ar
    13    10    11   ar
    14     1    11    1
    15     1    16    1
    16    16    17   ar
    17    17    18   ar
    18    18    19   ar
    19    19    20   ar
    20    20    21    1
    21    20    22   ar
    22     1    23    1
    23    23    24    1
    24    23    35    1
    25    35    36    1
    26    36    37    1
    27    37    38    1
    28    37    39    1
    29    23    26    1
    30    26    27   ar
    31    27    28   ar
    32    28    29   ar
    33    29    30   ar
    34    30    31   ar
    35    31    32    1
    36    32    33    1
    37    33    34    1
    38    11     2   ar
    39    22    16   ar
    40    31    26   ar
    41     9     4   ar
    42    34    30    1
    43    24    25    1
@<TRIPOS>MOLECULE
*****
 39 43 0 0 0
SMALL
GASTEIGER

@<TRIPOS>ATOM
      1 C         141.4572  140.5358  164.6157 C.3     1  UNL1        0.0761
      2 C         143.2503  140.6343  162.7381 C.ar    1  UNL1        0.1351
      3 C         143.6297  140.9366  161.3188 C.ar    1  UNL1        0.0366
      4 C         142.5954  141.4429  160.3575 C.ar    1  UNL1        0.0030
      5 C         142.9748  141.7452  158.9382 C.ar    1  UNL1        0.0008
      6 C         141.9405  142.2514  157.9770 C.ar    1  UNL1        0.0103
      7 C         140.5268  142.4553  158.4351 C.ar    1  UNL1        0.0684
      8 C         140.1474  142.1530  159.8545 C.ar    1  UNL1        0.0103
      9 C         141.1817  141.6468  160.8157 C.ar    1  UNL1        0.0006
     10 C         140.8023  141.3444  162.2351 C.ar    1  UNL1       -0.0009
     11 C         141.8366  140.8382  163.1963 C.ar    1  UNL1        0.0181
     12 C         145.5002  140.9548  163.9972 C.3     1  UNL1        0.2525
     13 O         144.2846  140.1280  163.6994 O.3     1  UNL1       -0.4717
     14 C         139.4926  142.9616  157.4738 C.1     1  UNL1        0.1004
     15 N         138.4583  143.4678  156.5126 N.1     1  UNL1       -0.1908
     16 C         140.4870  139.4313  164.9137 C.ar    1  UNL1       -0.0160
     17 C         140.5196  138.1667  164.1077 C.ar    1  UNL1       -0.0039
     18 C         139.5493  137.0622  164.4057 C.ar    1  UNL1       -0.0006
     19 C         138.5466  137.2223  165.5096 C.ar    1  UNL1       -0.0043
     20 C         138.5139  138.4869  166.3156 C.ar    1  UNL1       -0.0222
     21 C         137.5111  138.6471  167.4196 C.3     1  UNL1        0.0310
     22 C         139.4841  139.5914  166.0177 C.ar    1  UNL1       -0.0081
     23 C         142.0480  141.3379  165.7371 C.3     1  UNL1        0.1187
     24 O         142.8064  140.1300  166.2015 O.3     1  UNL1       -0.3819
     25 H         143.7139  140.3858  166.4293 H       1  UNL1        0.2107
     26 C         141.2896  142.5458  165.2726 C.ar    1  UNL1        0.0395
     27 C         139.8211  142.6637  165.5548 C.ar    1  UNL1        0.0012
     28 C         139.0627  143.8716  165.0904 C.ar    1  UNL1        0.0031
     29 C         139.7728  144.9617  164.3437 C.ar    1  UNL1        0.0402
     30 C         141.2412  144.8438  164.0615 C.ar    1  UNL1        0.1762
     31 C         141.9997  143.6359  164.5260 C.ar    1  UNL1        0.1746
     32 O         143.4303  143.7965  164.1046 O.3     1  UNL1       -0.4349
     33 C         143.5560  145.1036  163.3797 C.3     1  UNL1        0.4294
     34 O         142.2031  145.7509  163.3531 O.3     1  UNL1       -0.4346
     35 C         142.6388  142.1400  166.8585 C.3     1  UNL1        0.0492
     36 C         142.6781  141.5729  168.2466 C.3     1  UNL1        0.0750
     37 N         141.4006  141.2180  168.9482 N.3     1  UNL1       -0.2702
     38 C         141.1522  139.8044  169.3842 C.3     1  UNL1        0.0897
     39 C         140.3716  142.2765  169.2138 C.3     1  UNL1        0.0897
@<TRIPOS>BOND
     1    12    13    1
     2    13     2    1
     3     2     3   ar
     4     3     4   ar
     5     4     5   ar
     6     5     6   ar
     7     6     7   ar
     8     7    14    1
     9    14    15    3
    10     7     8   ar
    11     8     9   ar
    12     9    10   ar
    13    10    11   ar
    14     1    11    1
    15     1    16    1
    16    16    17   ar
    17    17    18   ar
    18    18    19   ar
    19    19    20   ar
    20    20    21    1
    21    20    22   ar
    22     1    23    1
    23    23    24    1
    24    23    35    1
    25    35    36    1
    26    36    37    1
    27    37    38    1
    28    37    39    1
    29    23    26    1
    30    26    27   ar
    31    27    28   ar
    32    28    29   ar
    33    29    30   ar
    34    30    31   ar
    35    31    32    1
    36    32    33    1
    37    33    34    1
    38    11     2   ar
    39    22    16   ar
    40    31    26   ar
    41     9     4   ar
    42    34    30    1
    43    24    25    1
@<TRIPOS>MOLECULE
*****
 39 43 0 0 0
SMALL
GASTEIGER

@<TRIPOS>ATOM
      1 C         140.5890  140.8896  164.0357 C.3     1  UNL1        0.0761
      2 C         141.4587  139.3237  162.1538 C.ar    1  UNL1        0.1351
      3 C         141.3719  138.8110  160.7468 C.ar    1  UNL1        0.0366
      4 C         140.3285  139.3517  159.8146 C.ar    1  UNL1        0.0030
      5 C         140.2417  138.8391  158.4076 C.ar    1  UNL1        0.0008
      6 C         139.1983  139.3797  157.4755 C.ar    1  UNL1        0.0103
      7 C         138.2417  140.4331  157.9503 C.ar    1  UNL1        0.0684
      8 C         138.3285  140.9457  159.3573 C.ar    1  UNL1        0.0103
      9 C         139.3719  140.4050  160.2894 C.ar    1  UNL1        0.0006
     10 C         139.4588  140.9177  161.6965 C.ar    1  UNL1       -0.0009
     11 C         140.5021  140.3770  162.6286 C.ar    1  UNL1        0.0181
     12 C         143.9371  138.7249  162.6530 C.3     1  UNL1        0.2525
     13 O         142.5022  138.7830  163.0860 O.3     1  UNL1       -0.4717
     14 C         137.1983  140.9737  157.0181 C.1     1  UNL1        0.1004
     15 N         136.1549  141.5144  156.0859 N.1     1  UNL1       -0.1908
     16 C         139.8138  140.2155  165.1287 C.ar    1  UNL1       -0.0160
     17 C         138.7989  139.1642  164.7898 C.ar    1  UNL1       -0.0039
     18 C         138.0238  138.4901  165.8828 C.ar    1  UNL1       -0.0006
     19 C         138.2635  138.8672  167.3147 C.ar    1  UNL1       -0.0043
     20 C         139.2784  139.9185  167.6536 C.ar    1  UNL1       -0.0222
     21 C         139.5181  140.2956  169.0855 C.3     1  UNL1        0.0310
     22 C         140.0536  140.5926  166.5606 C.ar    1  UNL1       -0.0081
     23 C         141.4510  142.0763  164.3497 C.3     1  UNL1        0.1187
     24 O         142.5615  141.1590  164.7681 O.3     1  UNL1       -0.3819
     25 H         143.4019  141.4837  164.4085 H       1  UNL1        0.2107
     26 C         140.3404  142.9937  163.9313 C.ar    1  UNL1        0.0395
     27 C         139.1510  143.1876  164.8245 C.ar    1  UNL1        0.0012
     28 C         138.0405  144.1049  164.4062 C.ar    1  UNL1        0.0031
     29 C         138.1192  144.8284  163.0946 C.ar    1  UNL1        0.0402
     30 C         139.3086  144.6346  162.2013 C.ar    1  UNL1        0.1762
     31 C         140.4192  143.7172  162.6197 C.ar    1  UNL1        0.1746
     32 O         141.4587  143.7246  161.5383 O.3     1  UNL1       -0.4349
     33 C         140.9906  144.6465  160.4516 C.3     1  UNL1        0.4294
     34 O         139.6617  145.2089  160.8614 O.3     1  UNL1       -0.4346
     35 C         142.3129  143.2631  164.6637 C.3     1  UNL1        0.0492
     36 C         143.7890  143.0860  164.8636 C.3     1  UNL1        0.0750
     37 N         144.6864  142.8765  163.6800 N.3     1  UNL1       -0.2702
     38 C         144.5208  143.7246  162.4539 C.3     1  UNL1        0.0897
     39 C         145.7493  141.8190  163.7226 C.3     1  UNL1        0.0897
@<TRIPOS>BOND
     1    12    13    1
     2    13     2    1
     3     2     3   ar
     4     3     4   ar
     5     4     5   ar
     6     5     6   ar
     7     6     7   ar
     8     7    14    1
     9    14    15    3
    10     7     8   ar
    11     8     9   ar
    12     9    10   ar
    13    10    11   ar
    14     1    11    1
    15     1    16    1
    16    16    17   ar
    17    17    18   ar
    18    18    19   ar
    19    19    20   ar
    20    20    21    1
    21    20    22   ar
    22     1    23    1
    23    23    24    1
    24    23    35    1
    25    35    36    1
    26    36    37    1
    27    37    38    1
    28    37    39    1
    29    23    26    1
    30    26    27   ar
    31    27    28   ar
    32    28    29   ar
    33    29    30   ar
    34    30    31   ar
    35    31    32    1
    36    32    33    1
    37    33    34    1
    38    11     2   ar
    39    22    16   ar
    40    31    26   ar
    41     9     4   ar
    42    34    30    1
    43    24    25    1
@<TRIPOS>MOLECULE
*****
 39 43 0 0 0
SMALL
GASTEIGER

@<TRIPOS>ATOM
      1 C         140.8006  141.2710  164.9505 C.3     1  UNL1        0.0761
      2 C         139.0310  139.9258  163.6054 C.ar    1  UNL1        0.1351
      3 C         138.6365  139.1695  162.3716 C.ar    1  UNL1        0.0366
      4 C         139.6171  139.0021  161.2489 C.ar    1  UNL1        0.0030
      5 C         139.2226  138.2458  160.0151 C.ar    1  UNL1        0.0008
      6 C         140.2032  138.0784  158.8924 C.ar    1  UNL1        0.0103
      7 C         141.5783  138.6672  159.0036 C.ar    1  UNL1        0.0684
      8 C         141.9728  139.4235  160.2374 C.ar    1  UNL1        0.0103
      9 C         140.9922  139.5909  161.3600 C.ar    1  UNL1        0.0006
     10 C         141.3867  140.3473  162.5939 C.ar    1  UNL1       -0.0009
     11 C         140.4061  140.5147  163.7166 C.ar    1  UNL1        0.0181
     12 C         138.0461  139.1220  165.8712 C.3     1  UNL1        0.2525
     13 O         138.0504  140.0932  164.7282 O.3     1  UNL1       -0.4717
     14 C         142.5589  138.4998  157.8808 C.1     1  UNL1        0.1004
     15 N         143.5394  138.3323  156.7582 N.1     1  UNL1       -0.1908
     16 C         141.4292  140.5478  166.1045 C.ar    1  UNL1       -0.0160
     17 C         141.0083  140.8667  167.5085 C.ar    1  UNL1       -0.0039
     18 C         141.6369  140.1435  168.6625 C.ar    1  UNL1       -0.0006
     19 C         142.6864  139.1014  168.4126 C.ar    1  UNL1       -0.0043
     20 C         143.1074  138.7825  167.0086 C.ar    1  UNL1       -0.0222
     21 C         144.1570  137.7404  166.7588 C.3     1  UNL1        0.0310
     22 C         142.4788  139.5057  165.8546 C.ar    1  UNL1       -0.0081
     23 C         140.5665  142.7504  165.0303 C.3     1  UNL1        0.1187
     24 O         139.1548  142.5031  165.4731 O.3     1  UNL1       -0.3819
     25 H         138.9353  143.1028  166.2033 H       1  UNL1        0.2107
     26 C         141.9781  142.9977  164.5875 C.ar    1  UNL1        0.0395
     27 C         143.0974  142.9436  165.5847 C.ar    1  UNL1        0.0012
     28 C         144.5090  143.1909  165.1419 C.ar    1  UNL1        0.0031
     29 C         144.8014  143.4923  163.7019 C.ar    1  UNL1        0.0402
     30 C         143.6822  143.5464  162.7047 C.ar    1  UNL1        0.1762
     31 C         142.2705  143.2991  163.1475 C.ar    1  UNL1        0.1746
     32 O         141.3803  143.4179  161.9460 O.3     1  UNL1       -0.4349
     33 C         142.2418  143.7386  160.7607 C.3     1  UNL1        0.4294
     34 O         143.6644  143.8180  161.2296 O.3     1  UNL1       -0.4346
     35 C         140.3323  144.2298  165.1101 C.3     1  UNL1        0.0492
     36 C         139.0384  144.8118  164.6232 C.3     1  UNL1        0.0750
     37 N         138.6971  144.7646  163.1633 N.3     1  UNL1       -0.2702
     38 C         137.8270  143.6644  162.6316 C.3     1  UNL1        0.0897
     39 C         139.2258  145.8175  162.2350 C.3     1  UNL1        0.0897
@<TRIPOS>BOND
     1    12    13    1
     2    13     2    1
     3     2     3   ar
     4     3     4   ar
     5     4     5   ar
     6     5     6   ar
     7     6     7   ar
     8     7    14    1
     9    14    15    3
    10     7     8   ar
    11     8     9   ar
    12     9    10   ar
    13    10    11   ar
    14     1    11    1
    15     1    16    1
    16    16    17   ar
    17    17    18   ar
    18    18    19   ar
    19    19    20   ar
    20    20    21    1
    21    20    22   ar
    22     1    23    1
    23    23    24    1
    24    23    35    1
    25    35    36    1
    26    36    37    1
    27    37    38    1
    28    37    39    1
    29    23    26    1
    30    26    27   ar
    31    27    28   ar
    32    28    29   ar
    33    29    30   ar
    34    30    31   ar
    35    31    32    1
    36    32    33    1
    37    33    34    1
    38    11     2   ar
    39    22    16   ar
    40    31    26   ar
    41     9     4   ar
    42    34    30    1
    43    24    25    1
