@<TRIPOS>MOLECULE
*****
 28 31 0 0 0
SMALL
GASTEIGER

@<TRIPOS>ATOM
      1 C         138.5187  137.7142  163.3179 C.3     1  UNL1        0.0420
      2 C         138.8785  138.8256  164.2588 C.3     1  UNL1        0.1909
      3 O         139.4386  140.1099  163.7233 O.3     1  UNL1       -0.3501
      4 C         139.7985  141.2213  164.6643 C.3     1  UNL1        0.1141
      5 C         140.1582  142.3326  165.6053 C.3     1  UNL1        0.0463
      6 C         140.7184  143.6169  165.0698 C.3     1  UNL1        0.0746
      7 N         140.9188  143.7898  163.5933 N.3     1  UNL1       -0.2722
      8 C         140.5590  142.6785  162.6524 C.3     1  UNL1        0.0746
      9 C         139.9989  141.3942  163.1879 C.3     1  UNL1        0.0463
     10 C         139.5981  141.0484  166.1408 C.3     1  UNL1        0.1209
     11 N         139.0378  139.7640  166.6763 N.am    1  UNL1       -0.2711
     12 C         138.6781  138.6527  165.7353 C.2     1  UNL1        0.2531
     13 O         138.1179  137.3683  166.2708 O.2     1  UNL1       -0.2722
     14 C         141.4790  145.0742  163.0579 C.3     1  UNL1        0.0768
     15 C         142.9641  145.2660  162.9707 C.3     1  UNL1        0.0437
     16 C         143.8829  144.0915  163.1332 C.ar    1  UNL1       -0.0208
     17 C         144.3537  143.3349  161.9267 C.ar    1  UNL1       -0.0042
     18 C         145.2724  142.1604  162.0893 C.ar    1  UNL1       -0.0003
     19 C         145.7204  141.7426  163.4585 C.ar    1  UNL1       -0.0000
     20 C         145.2497  142.4992  164.6651 C.ar    1  UNL1       -0.0003
     21 C         144.3309  143.6737  164.5024 C.ar    1  UNL1       -0.0042
     22 C         138.8374  139.5911  168.1527 C.3     1  UNL1        0.1203
     23 C         139.7997  140.2166  169.1186 C.ar    1  UNL1       -0.0023
     24 C         139.3732  141.3921  169.9470 C.ar    1  UNL1       -0.0026
     25 C         140.3354  142.0176  170.9128 C.ar    1  UNL1       -0.0003
     26 C         141.7241  141.4677  171.0502 C.ar    1  UNL1       -0.0000
     27 C         142.1507  140.2922  170.2217 C.ar    1  UNL1       -0.0003
     28 C         141.1885  139.6667  169.2559 C.ar    1  UNL1       -0.0026
@<TRIPOS>BOND
     1     1     2    1
     2     2     3    1
     3     3     4    1
     4     4     5    1
     5     5     6    1
     6     6     7    1
     7     7    14    1
     8    14    15    1
     9    15    16    1
    10    16    17   ar
    11    17    18   ar
    12    18    19   ar
    13    19    20   ar
    14    20    21   ar
    15     7     8    1
    16     8     9    1
    17     4    10    1
    18    10    11    1
    19    11    22    1
    20    22    23    1
    21    23    24   ar
    22    24    25   ar
    23    25    26   ar
    24    26    27   ar
    25    27    28   ar
    26    11    12   am
    27    12    13    2
    28    12     2    1
    29     9     4    1
    30    28    23   ar
    31    21    16   ar
@<TRIPOS>MOLECULE
*****
 28 31 0 0 0
SMALL
GASTEIGER

@<TRIPOS>ATOM
      1 C         138.4855  137.4867  162.7954 C.3     1  UNL1        0.0420
      2 C         138.5913  138.6597  163.7245 C.3     1  UNL1        0.1909
      3 O         138.6624  140.0516  163.1701 O.3     1  UNL1       -0.3501
      4 C         138.7682  141.2245  164.0991 C.3     1  UNL1        0.1141
      5 C         138.8740  142.3974  165.0282 C.3     1  UNL1        0.0463
      6 C         138.9450  143.7893  164.4737 C.3     1  UNL1        0.0746
      7 N         138.9103  144.0084  162.9902 N.3     1  UNL1       -0.2722
      8 C         138.8045  142.8355  162.0612 C.3     1  UNL1        0.0746
      9 C         138.7334  141.4436  162.6156 C.3     1  UNL1        0.0463
     10 C         138.8029  141.0054  165.5826 C.3     1  UNL1        0.1209
     11 N         138.7318  139.6134  166.1371 N.am    1  UNL1       -0.2711
     12 C         138.6260  138.4406  165.2080 C.2     1  UNL1        0.2531
     13 O         138.5549  137.0486  165.7625 O.2     1  UNL1       -0.2722
     14 C         138.9814  145.4004  162.4358 C.3     1  UNL1        0.0768
     15 C         140.3076  145.9901  162.0573 C.3     1  UNL1        0.0437
     16 C         141.5753  145.2603  162.3898 C.ar    1  UNL1       -0.0208
     17 C         142.1845  144.3219  161.3907 C.ar    1  UNL1       -0.0042
     18 C         143.4522  143.5922  161.7232 C.ar    1  UNL1       -0.0003
     19 C         144.1105  143.8009  163.0547 C.ar    1  UNL1       -0.0000
     20 C         143.5013  144.7393  164.0538 C.ar    1  UNL1       -0.0003
     21 C         142.2337  145.4690  163.7213 C.ar    1  UNL1       -0.0042
     22 C         138.7665  139.3943  167.6206 C.3     1  UNL1        0.1203
     23 C         139.8229  140.0594  168.4524 C.ar    1  UNL1       -0.0023
     24 C         139.4325  140.8681  169.6540 C.ar    1  UNL1       -0.0026
     25 C         140.4888  141.5332  170.4858 C.ar    1  UNL1       -0.0003
     26 C         141.9354  141.3896  170.1160 C.ar    1  UNL1       -0.0000
     27 C         142.3257  140.5810  168.9145 C.ar    1  UNL1       -0.0003
     28 C         141.2695  139.9159  168.0827 C.ar    1  UNL1       -0.0026
@<TRIPOS>BOND
     1     1     2    1
     2     2     3    1
     3     3     4    1
     4     4     5    1
     5     5     6    1
     6     6     7    1
     7     7    14    1
     8    14    15    1
     9    15    16    1
    10    16    17   ar
    11    17    18   ar
    12    18    19   ar
    13    19    20   ar
    14    20    21   ar
    15     7     8    1
    16     8     9    1
    17     4    10    1
    18    10    11    1
    19    11    22    1
    20    22    23    1
    21    23    24   ar
    22    24    25   ar
    23    25    26   ar
    24    26    27   ar
    25    27    28   ar
    26    11    12   am
    27    12    13    2
    28    12     2    1
    29     9     4    1
    30    28    23   ar
    31    21    16   ar
@<TRIPOS>MOLECULE
*****
 28 31 0 0 0
SMALL
GASTEIGER

@<TRIPOS>ATOM
      1 C         138.3960  137.3100  163.8538 C.3     1  UNL1        0.0420
      2 C         139.2544  138.2227  164.6785 C.3     1  UNL1        0.1909
      3 O         140.5654  138.7112  164.1376 O.3     1  UNL1       -0.3501
      4 C         141.4239  139.6238  164.9624 C.3     1  UNL1        0.1141
      5 C         142.2822  140.5364  165.7871 C.3     1  UNL1        0.0463
      6 C         143.5932  141.0249  165.2462 C.3     1  UNL1        0.0746
      7 N         144.0458  140.6007  163.8804 N.3     1  UNL1       -0.2722
      8 C         143.1875  139.6881  163.0557 C.3     1  UNL1        0.0746
      9 C         141.8765  139.1997  163.5966 C.3     1  UNL1        0.0463
     10 C         140.9713  140.0480  166.3281 C.3     1  UNL1        0.1209
     11 N         139.6602  139.5595  166.8690 N.am    1  UNL1       -0.2711
     12 C         138.8018  138.6469  166.0443 C.2     1  UNL1        0.2531
     13 O         137.4908  138.1584  166.5852 O.2     1  UNL1       -0.2722
     14 C         145.3569  141.0892  163.3395 C.3     1  UNL1        0.0768
     15 C         145.4501  142.4493  162.7137 C.3     1  UNL1        0.0437
     16 C         144.2419  143.3371  162.6655 C.ar    1  UNL1       -0.0208
     17 C         143.3108  143.2734  161.4913 C.ar    1  UNL1       -0.0042
     18 C         142.1027  144.1612  161.4432 C.ar    1  UNL1       -0.0003
     19 C         141.8258  145.1126  162.5692 C.ar    1  UNL1       -0.0000
     20 C         142.7569  145.1763  163.7435 C.ar    1  UNL1       -0.0003
     21 C         143.9650  144.2885  163.7916 C.ar    1  UNL1       -0.0042
     22 C         139.2076  139.9837  168.2348 C.3     1  UNL1        0.1203
     23 C         140.1509  140.7137  169.1444 C.ar    1  UNL1       -0.0023
     24 C         140.1738  142.2135  169.1537 C.ar    1  UNL1       -0.0026
     25 C         141.1170  142.9435  170.0633 C.ar    1  UNL1       -0.0003
     26 C         142.0373  142.1738  170.9635 C.ar    1  UNL1       -0.0000
     27 C         142.0144  140.6740  170.9542 C.ar    1  UNL1       -0.0003
     28 C         141.0712  139.9439  170.0446 C.ar    1  UNL1       -0.0026
@<TRIPOS>BOND
     1     1     2    1
     2     2     3    1
     3     3     4    1
     4     4     5    1
     5     5     6    1
     6     6     7    1
     7     7    14    1
     8    14    15    1
     9    15    16    1
    10    16    17   ar
    11    17    18   ar
    12    18    19   ar
    13    19    20   ar
    14    20    21   ar
    15     7     8    1
    16     8     9    1
    17     4    10    1
    18    10    11    1
    19    11    22    1
    20    22    23    1
    21    23    24   ar
    22    24    25   ar
    23    25    26   ar
    24    26    27   ar
    25    27    28   ar
    26    11    12   am
    27    12    13    2
    28    12     2    1
    29     9     4    1
    30    28    23   ar
    31    21    16   ar
@<TRIPOS>MOLECULE
*****
 28 31 0 0 0
SMALL
GASTEIGER

@<TRIPOS>ATOM
      1 C         144.7537  142.8376  162.3776 C.3     1  UNL1        0.0420
      2 C         144.1919  141.4634  162.1628 C.3     1  UNL1        0.1909
      3 O         144.0296  140.9287  160.7709 O.3     1  UNL1       -0.3501
      4 C         143.4677  139.5545  160.5561 C.3     1  UNL1        0.1141
      5 C         142.9059  138.1804  160.3413 C.3     1  UNL1        0.0463
      6 C         142.7436  137.6456  158.9494 C.3     1  UNL1        0.0746
      7 N         143.1431  138.4850  157.7721 N.3     1  UNL1       -0.2722
      8 C         143.7050  139.8591  157.9869 C.3     1  UNL1        0.0746
      9 C         143.8673  140.3938  159.3788 C.3     1  UNL1        0.0463
     10 C         143.0682  138.7152  161.7333 C.3     1  UNL1        0.1209
     11 N         143.2305  139.2500  163.1253 N.am    1  UNL1       -0.2711
     12 C         143.7923  140.6241  163.3401 C.2     1  UNL1        0.2531
     13 O         143.9547  141.1589  164.7321 O.2     1  UNL1       -0.2722
     14 C         142.9808  137.9501  156.3801 C.3     1  UNL1        0.0768
     15 C         143.8910  136.8670  155.8819 C.3     1  UNL1        0.0437
     16 C         143.3889  135.4580  155.7697 C.ar    1  UNL1       -0.0208
     17 C         143.4537  134.5419  156.9557 C.ar    1  UNL1       -0.0042
     18 C         142.9515  133.1330  156.8434 C.ar    1  UNL1       -0.0003
     19 C         142.3845  132.6401  155.5451 C.ar    1  UNL1       -0.0000
     20 C         142.3197  133.5561  154.3591 C.ar    1  UNL1       -0.0003
     21 C         142.8219  134.9650  154.4714 C.ar    1  UNL1       -0.0042
     22 C         142.8310  138.4107  164.3026 C.3     1  UNL1        0.1203
     23 C         141.4271  138.4742  164.8271 C.ar    1  UNL1       -0.0023
     24 C         140.3850  137.5347  164.2965 C.ar    1  UNL1       -0.0026
     25 C         138.9811  137.5983  164.8209 C.ar    1  UNL1       -0.0003
     26 C         138.6193  138.6013  165.8759 C.ar    1  UNL1       -0.0000
     27 C         139.6614  139.5407  166.4065 C.ar    1  UNL1       -0.0003
     28 C         141.0653  139.4772  165.8821 C.ar    1  UNL1       -0.0026
@<TRIPOS>BOND
     1     1     2    1
     2     2     3    1
     3     3     4    1
     4     4     5    1
     5     5     6    1
     6     6     7    1
     7     7    14    1
     8    14    15    1
     9    15    16    1
    10    16    17   ar
    11    17    18   ar
    12    18    19   ar
    13    19    20   ar
    14    20    21   ar
    15     7     8    1
    16     8     9    1
    17     4    10    1
    18    10    11    1
    19    11    22    1
    20    22    23    1
    21    23    24   ar
    22    24    25   ar
    23    25    26   ar
    24    26    27   ar
    25    27    28   ar
    26    11    12   am
    27    12    13    2
    28    12     2    1
    29     9     4    1
    30    28    23   ar
    31    21    16   ar
@<TRIPOS>MOLECULE
*****
 28 31 0 0 0
SMALL
GASTEIGER

@<TRIPOS>ATOM
      1 C         143.3501  138.0869  165.8940 C.3     1  UNL1        0.0420
      2 C         142.3753  138.5079  164.8345 C.3     1  UNL1        0.1909
      3 O         142.6858  138.2593  163.3882 O.3     1  UNL1       -0.3501
      4 C         141.7110  138.6803  162.3287 C.3     1  UNL1        0.1141
      5 C         140.7362  139.1013  161.2692 C.3     1  UNL1        0.0463
      6 C         141.0468  138.8527  159.8230 C.3     1  UNL1        0.0746
      7 N         142.3321  138.1832  159.4361 N.3     1  UNL1       -0.2722
      8 C         143.3069  137.7623  160.4956 C.3     1  UNL1        0.0746
      9 C         142.9964  138.0108  161.9419 C.3     1  UNL1        0.0463
     10 C         140.4257  139.3498  162.7155 C.3     1  UNL1        0.1209
     11 N         140.1151  139.5983  164.1619 N.am    1  UNL1       -0.2711
     12 C         141.0899  139.1774  165.2213 C.2     1  UNL1        0.2531
     13 O         140.7794  139.4259  166.6677 O.2     1  UNL1       -0.2722
     14 C         142.6426  137.9347  157.9898 C.3     1  UNL1        0.0768
     15 C         141.6579  137.2038  157.1261 C.3     1  UNL1        0.0437
     16 C         142.0622  135.9343  156.4369 C.ar    1  UNL1       -0.0208
     17 C         143.3234  135.2302  156.8412 C.ar    1  UNL1       -0.0042
     18 C         143.7276  133.9608  156.1520 C.ar    1  UNL1       -0.0003
     19 C         142.8707  133.3954  155.0584 C.ar    1  UNL1       -0.0000
     20 C         141.6095  134.0995  154.6540 C.ar    1  UNL1       -0.0003
     21 C         141.2052  135.3690  155.3432 C.ar    1  UNL1       -0.0042
     22 C         138.8298  140.2678  164.5487 C.3     1  UNL1        0.1203
     23 C         138.7308  141.7646  164.5377 C.ar    1  UNL1       -0.0023
     24 C         139.5570  142.5778  165.4895 C.ar    1  UNL1       -0.0026
     25 C         139.4581  144.0745  165.4786 C.ar    1  UNL1       -0.0003
     26 C         138.5330  144.7579  164.5158 C.ar    1  UNL1       -0.0000
     27 C         137.7068  143.9446  163.5639 C.ar    1  UNL1       -0.0003
     28 C         137.8057  142.4480  163.5749 C.ar    1  UNL1       -0.0026
@<TRIPOS>BOND
     1     1     2    1
     2     2     3    1
     3     3     4    1
     4     4     5    1
     5     5     6    1
     6     6     7    1
     7     7    14    1
     8    14    15    1
     9    15    16    1
    10    16    17   ar
    11    17    18   ar
    12    18    19   ar
    13    19    20   ar
    14    20    21   ar
    15     7     8    1
    16     8     9    1
    17     4    10    1
    18    10    11    1
    19    11    22    1
    20    22    23    1
    21    23    24   ar
    22    24    25   ar
    23    25    26   ar
    24    26    27   ar
    25    27    28   ar
    26    11    12   am
    27    12    13    2
    28    12     2    1
    29     9     4    1
    30    28    23   ar
    31    21    16   ar
@<TRIPOS>MOLECULE
*****
 28 31 0 0 0
SMALL
GASTEIGER

@<TRIPOS>ATOM
      1 C         145.8170  141.4156  163.8591 C.3     1  UNL1        0.0420
      2 C         144.4107  140.9843  163.5649 C.3     1  UNL1        0.1909
      3 O         144.0890  140.3126  162.2629 O.3     1  UNL1       -0.3501
      4 C         142.6827  139.8813  161.9688 C.3     1  UNL1        0.1141
      5 C         141.2765  139.4500  161.6748 C.3     1  UNL1        0.0463
      6 C         140.9548  138.7783  160.3728 C.3     1  UNL1        0.0746
      7 N         142.0394  138.5378  159.3648 N.3     1  UNL1       -0.2722
      8 C         143.4456  138.9691  159.6589 C.3     1  UNL1        0.0746
      9 C         143.7673  139.6408  160.9609 C.3     1  UNL1        0.0463
     10 C         141.5982  140.1218  162.9768 C.3     1  UNL1        0.1209
     11 N         141.9199  140.7935  164.2788 N.am    1  UNL1       -0.2711
     12 C         143.3262  141.2248  164.5729 C.2     1  UNL1        0.2531
     13 O         143.6479  141.8966  165.8749 O.2     1  UNL1       -0.2722
     14 C         141.7176  137.8661  158.0628 C.3     1  UNL1        0.0768
     15 C         142.7970  137.1620  157.2952 C.3     1  UNL1        0.0437
     16 C         142.5487  135.7920  156.7370 C.ar    1  UNL1       -0.0208
     17 C         141.5750  135.6060  155.6113 C.ar    1  UNL1       -0.0042
     18 C         141.3268  134.2361  155.0531 C.ar    1  UNL1       -0.0003
     19 C         142.0523  133.0522  155.6205 C.ar    1  UNL1       -0.0000
     20 C         143.0260  133.2382  156.7462 C.ar    1  UNL1       -0.0003
     21 C         143.2743  134.6081  157.3044 C.ar    1  UNL1       -0.0042
     22 C         140.8354  141.0340  165.2868 C.3     1  UNL1        0.1203
     23 C         139.8064  142.0977  165.0420 C.ar    1  UNL1       -0.0023
     24 C         138.6265  141.8113  164.1612 C.ar    1  UNL1       -0.0026
     25 C         137.5976  142.8749  163.9164 C.ar    1  UNL1       -0.0003
     26 C         137.7486  144.2249  164.5524 C.ar    1  UNL1       -0.0000
     27 C         138.9285  144.5114  165.4332 C.ar    1  UNL1       -0.0003
     28 C         139.9574  143.4478  165.6780 C.ar    1  UNL1       -0.0026
@<TRIPOS>BOND
     1     1     2    1
     2     2     3    1
     3     3     4    1
     4     4     5    1
     5     5     6    1
     6     6     7    1
     7     7    14    1
     8    14    15    1
     9    15    16    1
    10    16    17   ar
    11    17    18   ar
    12    18    19   ar
    13    19    20   ar
    14    20    21   ar
    15     7     8    1
    16     8     9    1
    17     4    10    1
    18    10    11    1
    19    11    22    1
    20    22    23    1
    21    23    24   ar
    22    24    25   ar
    23    25    26   ar
    24    26    27   ar
    25    27    28   ar
    26    11    12   am
    27    12    13    2
    28    12     2    1
    29     9     4    1
    30    28    23   ar
    31    21    16   ar
@<TRIPOS>MOLECULE
*****
 28 31 0 0 0
SMALL
GASTEIGER

@<TRIPOS>ATOM
      1 C         137.0640  139.5170  160.5648 C.3     1  UNL1        0.0420
      2 C         137.9197  140.3465  161.4758 C.3     1  UNL1        0.1909
      3 O         138.0337  139.9899  162.9283 O.3     1  UNL1       -0.3501
      4 C         138.8893  140.8194  163.8394 C.3     1  UNL1        0.1141
      5 C         139.7449  141.6488  164.7503 C.3     1  UNL1        0.0463
      6 C         139.8589  141.2922  166.2028 C.3     1  UNL1        0.0746
      7 N         139.1173  140.1062  166.7444 N.3     1  UNL1       -0.2722
      8 C         138.2617  139.2767  165.8334 C.3     1  UNL1        0.0746
      9 C         138.1477  139.6333  164.3809 C.3     1  UNL1        0.0463
     10 C         139.6309  142.0054  163.2978 C.3     1  UNL1        0.1209
     11 N         139.5169  142.3620  161.8452 N.am    1  UNL1       -0.2711
     12 C         138.6613  141.5325  160.9343 C.2     1  UNL1        0.2531
     13 O         138.5473  141.8891  159.4817 O.2     1  UNL1       -0.2722
     14 C         139.2313  139.7496  168.1969 C.3     1  UNL1        0.0768
     15 C         140.5797  139.6921  168.8515 C.3     1  UNL1        0.0437
     16 C         141.2342  140.9531  169.3328 C.ar    1  UNL1       -0.0208
     17 C         140.3950  142.1421  169.6962 C.ar    1  UNL1       -0.0042
     18 C         141.0495  143.4031  170.1774 C.ar    1  UNL1       -0.0003
     19 C         142.5431  143.4750  170.2953 C.ar    1  UNL1       -0.0000
     20 C         143.3823  142.2860  169.9319 C.ar    1  UNL1       -0.0003
     21 C         142.7278  141.0251  169.4506 C.ar    1  UNL1       -0.0042
     22 C         140.2585  143.5480  161.3037 C.3     1  UNL1        0.1203
     23 C         141.4698  144.0665  162.0207 C.ar    1  UNL1       -0.0023
     24 C         141.3205  145.1115  163.0864 C.ar    1  UNL1       -0.0026
     25 C         142.5317  145.6300  163.8034 C.ar    1  UNL1       -0.0003
     26 C         143.8922  145.1035  163.4547 C.ar    1  UNL1       -0.0000
     27 C         144.0416  144.0585  162.3890 C.ar    1  UNL1       -0.0003
     28 C         142.8304  143.5401  161.6720 C.ar    1  UNL1       -0.0026
@<TRIPOS>BOND
     1     1     2    1
     2     2     3    1
     3     3     4    1
     4     4     5    1
     5     5     6    1
     6     6     7    1
     7     7    14    1
     8    14    15    1
     9    15    16    1
    10    16    17   ar
    11    17    18   ar
    12    18    19   ar
    13    19    20   ar
    14    20    21   ar
    15     7     8    1
    16     8     9    1
    17     4    10    1
    18    10    11    1
    19    11    22    1
    20    22    23    1
    21    23    24   ar
    22    24    25   ar
    23    25    26   ar
    24    26    27   ar
    25    27    28   ar
    26    11    12   am
    27    12    13    2
    28    12     2    1
    29     9     4    1
    30    28    23   ar
    31    21    16   ar
@<TRIPOS>MOLECULE
*****
 28 31 0 0 0
SMALL
GASTEIGER

@<TRIPOS>ATOM
      1 C         137.7702  139.6913  161.9334 C.3     1  UNL1        0.0420
      2 C         138.3805  141.0458  162.1410 C.3     1  UNL1        0.1909
      3 O         138.7711  141.8816  160.9584 O.3     1  UNL1       -0.3501
      4 C         139.3814  143.2361  161.1660 C.3     1  UNL1        0.1141
      5 C         139.9916  144.5906  161.3736 C.3     1  UNL1        0.0463
      6 C         140.3822  145.4264  160.1910 C.3     1  UNL1        0.0746
      7 N         140.1627  144.9079  158.8007 N.3     1  UNL1       -0.2722
      8 C         139.5525  143.5535  158.5931 C.3     1  UNL1        0.0746
      9 C         139.1618  142.7176  159.7757 C.3     1  UNL1        0.0463
     10 C         139.6009  143.7547  162.5563 C.3     1  UNL1        0.1209
     11 N         139.2102  142.9187  163.7389 N.am    1  UNL1       -0.2711
     12 C         138.6000  141.5643  163.5313 C.2     1  UNL1        0.2531
     13 O         138.2093  140.7284  164.7140 O.2     1  UNL1       -0.2722
     14 C         140.5534  145.7438  157.6181 C.3     1  UNL1        0.0768
     15 C         139.5733  145.9748  156.5063 C.3     1  UNL1        0.0437
     16 C         139.4601  147.3313  155.8760 C.ar    1  UNL1       -0.0208
     17 C         140.1557  147.6155  154.5778 C.ar    1  UNL1       -0.0042
     18 C         140.0425  148.9720  153.9476 C.ar    1  UNL1       -0.0003
     19 C         139.2338  150.0442  154.6156 C.ar    1  UNL1       -0.0000
     20 C         138.5382  149.7600  155.9138 C.ar    1  UNL1       -0.0003
     21 C         138.6514  148.4036  156.5440 C.ar    1  UNL1       -0.0042
     22 C         139.4297  143.4373  165.1292 C.3     1  UNL1        0.1203
     23 C         140.6307  142.9972  165.9129 C.ar    1  UNL1       -0.0023
     24 C         141.9543  142.8312  165.2268 C.ar    1  UNL1       -0.0026
     25 C         143.1552  142.3912  166.0104 C.ar    1  UNL1       -0.0003
     26 C         143.0326  142.1172  167.4801 C.ar    1  UNL1       -0.0000
     27 C         141.7091  142.2833  168.1661 C.ar    1  UNL1       -0.0003
     28 C         140.5081  142.7233  167.3825 C.ar    1  UNL1       -0.0026
@<TRIPOS>BOND
     1     1     2    1
     2     2     3    1
     3     3     4    1
     4     4     5    1
     5     5     6    1
     6     6     7    1
     7     7    14    1
     8    14    15    1
     9    15    16    1
    10    16    17   ar
    11    17    18   ar
    12    18    19   ar
    13    19    20   ar
    14    20    21   ar
    15     7     8    1
    16     8     9    1
    17     4    10    1
    18    10    11    1
    19    11    22    1
    20    22    23    1
    21    23    24   ar
    22    24    25   ar
    23    25    26   ar
    24    26    27   ar
    25    27    28   ar
    26    11    12   am
    27    12    13    2
    28    12     2    1
    29     9     4    1
    30    28    23   ar
    31    21    16   ar
@<TRIPOS>MOLECULE
*****
 28 31 0 0 0
SMALL
GASTEIGER

@<TRIPOS>ATOM
      1 C         141.9503  144.8302  163.9243 C.3     1  UNL1        0.0420
      2 C         140.8876  144.0988  163.1590 C.3     1  UNL1        0.1909
      3 O         140.8285  144.2104  161.6643 O.3     1  UNL1       -0.3501
      4 C         139.7658  143.4790  160.8989 C.3     1  UNL1        0.1141
      5 C         138.7031  142.7476  160.1337 C.3     1  UNL1        0.0463
      6 C         138.6441  142.8592  158.6390 C.3     1  UNL1        0.0746
      7 N         139.6477  143.7023  157.9097 N.3     1  UNL1       -0.2722
      8 C         140.7104  144.4337  158.6749 C.3     1  UNL1        0.0746
      9 C         140.7694  144.3220  160.1696 C.3     1  UNL1        0.0463
     10 C         138.7621  142.6360  161.6283 C.3     1  UNL1        0.1209
     11 N         138.8212  142.5243  163.1230 N.am    1  UNL1       -0.2711
     12 C         139.8839  143.2557  163.8883 C.2     1  UNL1        0.2531
     13 O         139.9430  143.1441  165.3830 O.2     1  UNL1       -0.2722
     14 C         139.5887  143.8139  156.4149 C.3     1  UNL1        0.0768
     15 C         140.6113  144.6314  155.6829 C.3     1  UNL1        0.0437
     16 C         140.2670  146.0114  155.2062 C.ar    1  UNL1       -0.0208
     17 C         140.8945  146.5511  153.9553 C.ar    1  UNL1       -0.0042
     18 C         140.5502  147.9310  153.4787 C.ar    1  UNL1       -0.0003
     19 C         139.5784  148.7713  154.2530 C.ar    1  UNL1       -0.0000
     20 C         138.9510  148.2316  155.5040 C.ar    1  UNL1       -0.0003
     21 C         139.2952  146.8517  155.9806 C.ar    1  UNL1       -0.0042
     22 C         137.8176  141.6813  163.8524 C.3     1  UNL1        0.1203
     23 C         138.1785  140.2908  164.2842 C.ar    1  UNL1       -0.0023
     24 C         138.1284  139.9198  165.7367 C.ar    1  UNL1       -0.0026
     25 C         138.4893  138.5294  166.1686 C.ar    1  UNL1       -0.0003
     26 C         138.9002  137.5100  165.1479 C.ar    1  UNL1       -0.0000
     27 C         138.9502  137.8810  163.6953 C.ar    1  UNL1       -0.0003
     28 C         138.5893  139.2714  163.2635 C.ar    1  UNL1       -0.0026
@<TRIPOS>BOND
     1     1     2    1
     2     2     3    1
     3     3     4    1
     4     4     5    1
     5     5     6    1
     6     6     7    1
     7     7    14    1
     8    14    15    1
     9    15    16    1
    10    16    17   ar
    11    17    18   ar
    12    18    19   ar
    13    19    20   ar
    14    20    21   ar
    15     7     8    1
    16     8     9    1
    17     4    10    1
    18    10    11    1
    19    11    22    1
    20    22    23    1
    21    23    24   ar
    22    24    25   ar
    23    25    26   ar
    24    26    27   ar
    25    27    28   ar
    26    11    12   am
    27    12    13    2
    28    12     2    1
    29     9     4    1
    30    28    23   ar
    31    21    16   ar
