@<TRIPOS>MOLECULE
*****
 25 28 0 0 0
SMALL
GASTEIGER

@<TRIPOS>ATOM
      1 C         142.3093  138.0863  159.8088 C.3     1  UNL1        0.0826
      2 C         140.8569  138.3681  160.0554 C.3     1  UNL1        0.0309
      3 C         140.3441  138.4880  161.4599 C.3     1  UNL1        0.0954
      4 N         141.2838  138.3261  162.6178 N.am    1  UNL1       -0.2642
      5 C         140.7709  138.4460  164.0223 C.2     1  UNL1        0.3039
      6 O         141.7106  138.2841  165.1802 O.2     1  UNL1       -0.2526
      7 N         139.3185  138.7279  164.2689 N.am    1  UNL1       -0.2901
      8 C         142.7362  138.0442  162.3712 C.3     1  UNL1        0.0954
      9 C         143.2490  137.9243  160.9667 C.3     1  UNL1        0.0309
     10 H         138.7017  138.8342  163.5089 H       1  UNL1        0.1509
     11 C         143.3311  136.2142  154.9784 C.3     1  UNL1        0.0773
     12 C         143.2918  137.1059  156.1840 C.ar    1  UNL1        0.1809
     13 N         143.9310  138.4578  156.3019 N.ar    1  UNL1       -0.0606
     14 O         143.6407  138.9896  157.6741 O.2     1  UNL1       -0.3374
     15 C         142.8222  137.9663  158.4042 C.ar    1  UNL1        0.2359
     16 N         142.6066  136.8022  157.4833 N.ar    1  UNL1       -0.1949
     17 C         138.8056  138.8478  165.6734 C.3     1  UNL1        0.0774
     18 C         137.8551  138.4162  166.7505 C.3     1  UNL1        0.0259
     19 C         138.8679  139.4871  167.0290 C.3     1  UNL1        0.0420
     20 C         139.4885  140.4744  167.9723 C.ar    1  UNL1       -0.0208
     21 C         140.3135  141.6069  167.4367 C.ar    1  UNL1       -0.0042
     22 C         140.9342  142.5942  168.3801 C.ar    1  UNL1       -0.0003
     23 C         140.7299  142.4490  169.8590 C.ar    1  UNL1       -0.0000
     24 C         139.9049  141.3165  170.3946 C.ar    1  UNL1       -0.0003
     25 C         139.2842  140.3292  169.4512 C.ar    1  UNL1       -0.0042
@<TRIPOS>BOND
     1    11    12    1
     2    12    13   ar
     3    13    14   ar
     4    14    15   ar
     5    15     1    1
     6     1     2    1
     7     2     3    1
     8     3     4    1
     9     4     5   am
    10     5     6    2
    11     5     7   am
    12     7    17    1
    13    17    18    1
    14    18    19    1
    15    19    20    1
    16    20    21   ar
    17    21    22   ar
    18    22    23   ar
    19    23    24   ar
    20    24    25   ar
    21     4     8    1
    22     8     9    1
    23    15    16   ar
    24    16    12   ar
    25     9     1    1
    26    19    17    1
    27    25    20   ar
    28     7    10    1
@<TRIPOS>MOLECULE
*****
 25 28 0 0 0
SMALL
GASTEIGER

@<TRIPOS>ATOM
      1 C         142.8675  138.9094  165.2159 C.3     1  UNL1        0.0826
      2 C         141.9350  138.0517  164.4129 C.3     1  UNL1        0.0309
      3 C         142.1151  137.9342  162.9284 C.3     1  UNL1        0.0954
      4 N         143.2277  138.6743  162.2469 N.am    1  UNL1       -0.2642
      5 C         143.4078  138.5567  160.7624 C.2     1  UNL1        0.3039
      6 O         144.5204  139.2968  160.0809 O.2     1  UNL1       -0.2526
      7 N         142.4753  137.6991  159.9594 N.am    1  UNL1       -0.2901
      8 C         144.1602  139.5319  163.0499 C.3     1  UNL1        0.0954
      9 C         143.9801  139.6494  164.5344 C.3     1  UNL1        0.0309
     10 H         141.7450  137.2133  160.4067 H       1  UNL1        0.1509
     11 C         140.9471  140.2365  169.9521 C.3     1  UNL1        0.0773
     12 C         141.8048  139.6370  168.8774 C.ar    1  UNL1        0.1809
     13 N         143.0162  138.7787  169.0923 N.ar    1  UNL1       -0.0606
     14 O         143.5617  138.4018  167.7469 O.2     1  UNL1       -0.3374
     15 C         142.6875  139.0270  166.7004 C.ar    1  UNL1        0.2359
     16 N         141.6017  139.7903  167.3992 N.ar    1  UNL1       -0.1949
     17 C         142.6553  137.5815  158.4748 C.3     1  UNL1        0.0774
     18 C         142.7917  138.2268  157.1277 C.3     1  UNL1        0.0259
     19 C         142.8309  136.7324  157.2508 C.3     1  UNL1        0.0420
     20 C         142.9549  135.3795  156.6151 C.ar    1  UNL1       -0.0208
     21 C         142.5922  135.1929  155.1716 C.ar    1  UNL1       -0.0042
     22 C         142.7162  133.8399  154.5360 C.ar    1  UNL1       -0.0003
     23 C         143.2028  132.6735  155.3439 C.ar    1  UNL1       -0.0000
     24 C         143.5655  132.8600  156.7874 C.ar    1  UNL1       -0.0003
     25 C         143.4415  134.2131  157.4230 C.ar    1  UNL1       -0.0042
@<TRIPOS>BOND
     1    11    12    1
     2    12    13   ar
     3    13    14   ar
     4    14    15   ar
     5    15     1    1
     6     1     2    1
     7     2     3    1
     8     3     4    1
     9     4     5   am
    10     5     6    2
    11     5     7   am
    12     7    17    1
    13    17    18    1
    14    18    19    1
    15    19    20    1
    16    20    21   ar
    17    21    22   ar
    18    22    23   ar
    19    23    24   ar
    20    24    25   ar
    21     4     8    1
    22     8     9    1
    23    15    16   ar
    24    16    12   ar
    25     9     1    1
    26    19    17    1
    27    25    20   ar
    28     7    10    1
@<TRIPOS>MOLECULE
*****
 25 28 0 0 0
SMALL
GASTEIGER

@<TRIPOS>ATOM
      1 C         140.5902  144.2869  160.6068 C.3     1  UNL1        0.0826
      2 C         139.9727  142.9200  160.5959 C.3     1  UNL1        0.0309
      3 C         139.7101  142.2054  161.8882 C.3     1  UNL1        0.0954
      4 N         140.0651  142.8576  163.1915 N.am    1  UNL1       -0.2642
      5 C         139.8025  142.1429  164.4839 C.2     1  UNL1        0.3039
      6 O         140.1575  142.7951  165.7872 O.2     1  UNL1       -0.2526
      7 N         139.1850  140.7760  164.4730 N.am    1  UNL1       -0.2901
      8 C         140.6827  144.2245  163.2024 C.3     1  UNL1        0.0954
      9 C         140.9453  144.9392  161.9101 C.3     1  UNL1        0.0309
     10 H         138.9520  140.3479  163.6176 H       1  UNL1        0.1509
     11 C         139.8653  146.7403  155.9876 C.3     1  UNL1        0.0773
     12 C         140.5196  146.1293  157.1912 C.ar    1  UNL1        0.1809
     13 N         141.9943  146.0737  157.4600 N.ar    1  UNL1       -0.0606
     14 O         142.2002  145.3767  158.7722 O.2     1  UNL1       -0.3374
     15 C         140.8528  145.0017  159.3144 C.ar    1  UNL1        0.2359
     16 N         139.8142  145.4668  158.3372 N.ar    1  UNL1       -0.1949
     17 C         138.9224  140.0612  165.7654 C.3     1  UNL1        0.0774
     18 C         138.1065  139.0964  166.5738 C.3     1  UNL1        0.0259
     19 C         139.2834  139.7881  167.1955 C.3     1  UNL1        0.0420
     20 C         140.1713  140.0298  168.3800 C.ar    1  UNL1       -0.0208
     21 C         139.5711  140.3978  169.7045 C.ar    1  UNL1       -0.0042
     22 C         140.4590  140.6395  170.8891 C.ar    1  UNL1       -0.0003
     23 C         141.9472  140.5131  170.7491 C.ar    1  UNL1       -0.0000
     24 C         142.5474  140.1451  169.4246 C.ar    1  UNL1       -0.0003
     25 C         141.6594  139.9034  168.2400 C.ar    1  UNL1       -0.0042
@<TRIPOS>BOND
     1    11    12    1
     2    12    13   ar
     3    13    14   ar
     4    14    15   ar
     5    15     1    1
     6     1     2    1
     7     2     3    1
     8     3     4    1
     9     4     5   am
    10     5     6    2
    11     5     7   am
    12     7    17    1
    13    17    18    1
    14    18    19    1
    15    19    20    1
    16    20    21   ar
    17    21    22   ar
    18    22    23   ar
    19    23    24   ar
    20    24    25   ar
    21     4     8    1
    22     8     9    1
    23    15    16   ar
    24    16    12   ar
    25     9     1    1
    26    19    17    1
    27    25    20   ar
    28     7    10    1
@<TRIPOS>MOLECULE
*****
 25 28 0 0 0
SMALL
GASTEIGER

@<TRIPOS>ATOM
      1 C         139.6901  140.6240  160.0849 C.3     1  UNL1        0.0826
      2 C         138.8507  139.7807  159.1716 C.3     1  UNL1        0.0309
      3 C         139.5009  138.7627  158.2823 C.3     1  UNL1        0.0954
      4 N         140.9905  138.5880  158.3063 N.am    1  UNL1       -0.2642
      5 C         141.6407  137.5700  157.4170 C.2     1  UNL1        0.3039
      6 O         143.1303  137.3953  157.4410 O.2     1  UNL1       -0.2526
      7 N         140.8013  136.7267  156.5036 N.am    1  UNL1       -0.2901
      8 C         141.8299  139.4313  159.2197 C.3     1  UNL1        0.0954
      9 C         141.1797  140.4493  160.1090 C.3     1  UNL1        0.0309
     10 H         139.8236  136.8414  156.4879 H       1  UNL1        0.1509
     11 C         137.8328  143.1001  164.3629 C.3     1  UNL1        0.0773
     12 C         138.1862  142.7802  162.9406 C.ar    1  UNL1        0.1809
     13 N         137.8924  143.6371  161.7450 N.ar    1  UNL1       -0.0606
     14 O         138.4201  142.9337  160.5298 O.2     1  UNL1       -0.3374
     15 C         139.0398  141.6420  160.9743 C.ar    1  UNL1        0.2359
     16 N         138.8953  141.5472  162.4643 N.ar    1  UNL1       -0.1949
     17 C         141.4515  135.7087  155.6143 C.3     1  UNL1        0.0774
     18 C         141.6559  135.1153  154.2519 C.3     1  UNL1        0.0259
     19 C         142.3733  134.5388  155.4363 C.3     1  UNL1        0.0420
     20 C         143.3196  133.5305  156.0174 C.ar    1  UNL1       -0.0208
     21 C         143.6641  132.2923  155.2439 C.ar    1  UNL1       -0.0042
     22 C         144.6105  131.2840  155.8249 C.ar    1  UNL1       -0.0003
     23 C         145.2124  131.5138  157.1796 C.ar    1  UNL1       -0.0000
     24 C         144.8679  132.7520  157.9531 C.ar    1  UNL1       -0.0003
     25 C         143.9215  133.7603  157.3719 C.ar    1  UNL1       -0.0042
@<TRIPOS>BOND
     1    11    12    1
     2    12    13   ar
     3    13    14   ar
     4    14    15   ar
     5    15     1    1
     6     1     2    1
     7     2     3    1
     8     3     4    1
     9     4     5   am
    10     5     6    2
    11     5     7   am
    12     7    17    1
    13    17    18    1
    14    18    19    1
    15    19    20    1
    16    20    21   ar
    17    21    22   ar
    18    22    23   ar
    19    23    24   ar
    20    24    25   ar
    21     4     8    1
    22     8     9    1
    23    15    16   ar
    24    16    12   ar
    25     9     1    1
    26    19    17    1
    27    25    20   ar
    28     7    10    1
@<TRIPOS>MOLECULE
*****
 25 28 0 0 0
SMALL
GASTEIGER

@<TRIPOS>ATOM
      1 C         139.2897  139.8587  166.7256 C.3     1  UNL1        0.0826
      2 C         139.7082  140.9232  165.7552 C.3     1  UNL1        0.0309
      3 C         139.5223  140.7101  164.2821 C.3     1  UNL1        0.0954
      4 N         138.9179  139.4326  163.7795 N.am    1  UNL1       -0.2642
      5 C         138.7320  139.2196  162.3063 C.2     1  UNL1        0.3039
      6 O         138.1276  137.9421  161.8037 O.2     1  UNL1       -0.2526
      7 N         139.1505  140.2840  161.3359 N.am    1  UNL1       -0.2901
      8 C         138.4994  138.3681  164.7499 C.3     1  UNL1        0.0954
      9 C         138.6853  138.5812  166.2230 C.3     1  UNL1        0.0309
     10 H         139.5472  141.1225  161.6658 H       1  UNL1        0.1509
     11 C         141.3100  141.3615  171.3669 C.3     1  UNL1        0.0773
     12 C         140.4043  140.7625  170.3321 C.ar    1  UNL1        0.1809
     13 N         139.1190  140.0366  170.5993 N.ar    1  UNL1       -0.0606
     14 O         138.5451  139.6097  169.2808 O.2     1  UNL1       -0.3374
     15 C         139.4756  140.0717  168.1988 C.ar    1  UNL1        0.2359
     16 N         140.6246  140.7842  168.8486 N.ar    1  UNL1       -0.1949
     17 C         138.9646  140.0710  159.8627 C.3     1  UNL1        0.0774
     18 C         138.2407  140.3820  158.5864 C.3     1  UNL1        0.0259
     19 C         139.3666  139.3910  158.5876 C.3     1  UNL1        0.0420
     20 C         140.2487  138.4261  157.8521 C.ar    1  UNL1       -0.0208
     21 C         139.7094  137.6601  156.6807 C.ar    1  UNL1       -0.0042
     22 C         140.5915  136.6952  155.9452 C.ar    1  UNL1       -0.0003
     23 C         142.0129  136.4965  156.3811 C.ar    1  UNL1       -0.0000
     24 C         142.5522  137.2625  157.5526 C.ar    1  UNL1       -0.0003
     25 C         141.6700  138.2274  158.2881 C.ar    1  UNL1       -0.0042
@<TRIPOS>BOND
     1    11    12    1
     2    12    13   ar
     3    13    14   ar
     4    14    15   ar
     5    15     1    1
     6     1     2    1
     7     2     3    1
     8     3     4    1
     9     4     5   am
    10     5     6    2
    11     5     7   am
    12     7    17    1
    13    17    18    1
    14    18    19    1
    15    19    20    1
    16    20    21   ar
    17    21    22   ar
    18    22    23   ar
    19    23    24   ar
    20    24    25   ar
    21     4     8    1
    22     8     9    1
    23    15    16   ar
    24    16    12   ar
    25     9     1    1
    26    19    17    1
    27    25    20   ar
    28     7    10    1
@<TRIPOS>MOLECULE
*****
 25 28 0 0 0
SMALL
GASTEIGER

@<TRIPOS>ATOM
      1 C         143.1158  139.6524  160.1805 C.3     1  UNL1        0.0826
      2 C         141.8186  140.3280  160.5133 C.3     1  UNL1        0.0309
      3 C         141.2195  140.1700  161.8793 C.3     1  UNL1        0.0954
      4 N         141.9177  139.3365  162.9126 N.am    1  UNL1       -0.2642
      5 C         141.3186  139.1786  164.2788 C.2     1  UNL1        0.3039
      6 O         142.0168  138.3451  165.3121 O.2     1  UNL1       -0.2526
      7 N         140.0214  139.8542  164.6115 N.am    1  UNL1       -0.2901
      8 C         143.2150  138.6610  162.5799 C.3     1  UNL1        0.0954
      9 C         143.8140  138.8189  161.2139 C.3     1  UNL1        0.0309
     10 H         139.5632  140.4012  163.9333 H       1  UNL1        0.1509
     11 C         145.6641  141.6645  156.0165 C.3     1  UNL1        0.0773
     12 C         144.8862  140.7352  156.9004 C.ar    1  UNL1        0.1809
     13 N         144.3874  139.3715  156.5240 N.ar    1  UNL1       -0.0606
     14 O         143.6635  138.7999  157.7070 O.2     1  UNL1       -0.3374
     15 C         143.7149  139.8104  158.8144 C.ar    1  UNL1        0.2359
     16 N         144.4706  141.0064  158.3159 N.ar    1  UNL1       -0.1949
     17 C         139.4223  139.6962  165.9776 C.3     1  UNL1        0.0774
     18 C         138.3858  139.0951  166.8799 C.3     1  UNL1        0.0259
     19 C         139.4211  140.0239  167.4414 C.3     1  UNL1        0.0420
     20 C         140.0183  140.7493  168.6106 C.ar    1  UNL1       -0.0208
     21 C         140.2592  140.0226  169.9006 C.ar    1  UNL1       -0.0042
     22 C         140.8563  140.7480  171.0698 C.ar    1  UNL1       -0.0003
     23 C         141.2125  142.2002  170.9492 C.ar    1  UNL1       -0.0000
     24 C         140.9716  142.9268  169.6592 C.ar    1  UNL1       -0.0003
     25 C         140.3744  142.2013  168.4899 C.ar    1  UNL1       -0.0042
@<TRIPOS>BOND
     1    11    12    1
     2    12    13   ar
     3    13    14   ar
     4    14    15   ar
     5    15     1    1
     6     1     2    1
     7     2     3    1
     8     3     4    1
     9     4     5   am
    10     5     6    2
    11     5     7   am
    12     7    17    1
    13    17    18    1
    14    18    19    1
    15    19    20    1
    16    20    21   ar
    17    21    22   ar
    18    22    23   ar
    19    23    24   ar
    20    24    25   ar
    21     4     8    1
    22     8     9    1
    23    15    16   ar
    24    16    12   ar
    25     9     1    1
    26    19    17    1
    27    25    20   ar
    28     7    10    1
@<TRIPOS>MOLECULE
*****
 25 28 0 0 0
SMALL
GASTEIGER

@<TRIPOS>ATOM
      1 C         141.3931  138.3901  159.6788 C.3     1  UNL1        0.0826
      2 C         142.3214  138.4369  160.8561 C.3     1  UNL1        0.0309
      3 C         141.7874  138.7616  162.2197 C.3     1  UNL1        0.0954
      4 N         140.3252  139.0395  162.4059 N.am    1  UNL1       -0.2642
      5 C         139.7912  139.3642  163.7696 C.2     1  UNL1        0.3039
      6 O         138.3290  139.6420  163.9559 O.2     1  UNL1       -0.2526
      7 N         140.7195  139.4111  164.9469 N.am    1  UNL1       -0.2901
      8 C         139.3969  138.9926  161.2286 C.3     1  UNL1        0.0954
      9 C         139.9309  138.6679  159.8650 C.3     1  UNL1        0.0309
     10 H         141.6792  139.2287  164.8246 H       1  UNL1        0.1509
     11 C         141.6872  136.8515  154.6362 C.3     1  UNL1        0.0773
     12 C         142.0622  137.3581  155.9973 C.ar    1  UNL1        0.1809
     13 N         143.4353  137.7732  156.4361 N.ar    1  UNL1       -0.0606
     14 O         143.3517  138.2103  157.8686 O.2     1  UNL1       -0.3374
     15 C         141.9271  138.0653  158.3151 C.ar    1  UNL1        0.2359
     16 N         141.1301  137.5387  157.1586 N.ar    1  UNL1       -0.1949
     17 C         140.1855  139.7358  166.3106 C.3     1  UNL1        0.0774
     18 C         139.1203  139.5917  167.3567 C.3     1  UNL1        0.0259
     19 C         140.3260  140.4423  167.6263 C.3     1  UNL1        0.0420
     20 C         141.1032  141.3413  168.5415 C.ar    1  UNL1       -0.0208
     21 C         140.4742  142.5949  169.0734 C.ar    1  UNL1       -0.0042
     22 C         141.2514  143.4939  169.9886 C.ar    1  UNL1       -0.0003
     23 C         142.6576  143.1393  170.3721 C.ar    1  UNL1       -0.0000
     24 C         143.2866  141.8857  169.8402 C.ar    1  UNL1       -0.0003
     25 C         142.5093  140.9867  168.9249 C.ar    1  UNL1       -0.0042
@<TRIPOS>BOND
     1    11    12    1
     2    12    13   ar
     3    13    14   ar
     4    14    15   ar
     5    15     1    1
     6     1     2    1
     7     2     3    1
     8     3     4    1
     9     4     5   am
    10     5     6    2
    11     5     7   am
    12     7    17    1
    13    17    18    1
    14    18    19    1
    15    19    20    1
    16    20    21   ar
    17    21    22   ar
    18    22    23   ar
    19    23    24   ar
    20    24    25   ar
    21     4     8    1
    22     8     9    1
    23    15    16   ar
    24    16    12   ar
    25     9     1    1
    26    19    17    1
    27    25    20   ar
    28     7    10    1
@<TRIPOS>MOLECULE
*****
 25 28 0 0 0
SMALL
GASTEIGER

@<TRIPOS>ATOM
      1 C         143.6741  141.6589  160.7922 C.3     1  UNL1        0.0826
      2 C         143.3498  140.2337  161.1290 C.3     1  UNL1        0.0309
      3 C         143.1879  139.2223  160.0332 C.3     1  UNL1        0.0954
      4 N         143.3504  139.6361  158.6006 N.am    1  UNL1       -0.2642
      5 C         143.1885  138.6246  157.5048 C.2     1  UNL1        0.3039
      6 O         143.3509  139.0384  156.0722 O.2     1  UNL1       -0.2526
      7 N         142.8641  137.1994  157.8417 N.am    1  UNL1       -0.2901
      8 C         143.6747  141.0613  158.2638 C.3     1  UNL1        0.0954
      9 C         143.8366  142.0727  159.3596 C.3     1  UNL1        0.0309
     10 H         142.7575  136.9278  158.7819 H       1  UNL1        0.1509
     11 C         144.6321  143.8559  165.4972 C.3     1  UNL1        0.0773
     12 C         144.2763  143.6803  164.0506 C.ar    1  UNL1        0.1809
     13 N         143.8938  144.7738  163.0977 N.ar    1  UNL1       -0.0606
     14 O         143.6217  144.1497  161.7611 O.2     1  UNL1       -0.3374
     15 C         143.8360  142.6705  161.8880 C.ar    1  UNL1        0.2359
     16 N         144.2406  142.3804  163.3029 N.ar    1  UNL1       -0.1949
     17 C         142.7023  136.1878  156.7459 C.3     1  UNL1        0.0774
     18 C         142.1421  135.7982  155.4101 C.3     1  UNL1        0.0259
     19 C         142.9820  134.8256  156.1837 C.3     1  UNL1        0.0420
     20 C         143.6285  133.4776  156.3059 C.ar    1  UNL1       -0.0208
     21 C         144.3642  133.1095  157.5601 C.ar    1  UNL1       -0.0042
     22 C         145.0107  131.7615  157.6823 C.ar    1  UNL1       -0.0003
     23 C         144.9214  130.7815  156.5501 C.ar    1  UNL1       -0.0000
     24 C         144.1856  131.1496  155.2959 C.ar    1  UNL1       -0.0003
     25 C         143.5391  132.4977  155.1738 C.ar    1  UNL1       -0.0042
@<TRIPOS>BOND
     1    11    12    1
     2    12    13   ar
     3    13    14   ar
     4    14    15   ar
     5    15     1    1
     6     1     2    1
     7     2     3    1
     8     3     4    1
     9     4     5   am
    10     5     6    2
    11     5     7   am
    12     7    17    1
    13    17    18    1
    14    18    19    1
    15    19    20    1
    16    20    21   ar
    17    21    22   ar
    18    22    23   ar
    19    23    24   ar
    20    24    25   ar
    21     4     8    1
    22     8     9    1
    23    15    16   ar
    24    16    12   ar
    25     9     1    1
    26    19    17    1
    27    25    20   ar
    28     7    10    1
@<TRIPOS>MOLECULE
*****
 25 28 0 0 0
SMALL
GASTEIGER

@<TRIPOS>ATOM
      1 C         140.4327  138.0317  157.6925 C.3     1  UNL1        0.0826
      2 C         139.7193  138.4831  158.9324 C.3     1  UNL1        0.0309
      3 C         140.4721  138.6219  160.2223 C.3     1  UNL1        0.0954
      4 N         141.9383  138.3092  160.2724 N.am    1  UNL1       -0.2642
      5 C         142.6911  138.4481  161.5624 C.2     1  UNL1        0.3039
      6 O         144.1573  138.1354  161.6125 O.2     1  UNL1       -0.2526
      7 N         141.9778  138.8995  162.8022 N.am    1  UNL1       -0.2901
      8 C         142.6517  137.8578  159.0325 C.3     1  UNL1        0.0954
      9 C         141.8989  137.7190  157.7426 C.3     1  UNL1        0.0309
     10 H         141.0154  139.1047  162.7693 H       1  UNL1        0.1509
     11 C         136.9613  138.8246  153.7935 C.3     1  UNL1        0.0773
     12 C         138.0843  138.2573  154.6104 C.ar    1  UNL1        0.1809
     13 N         138.9586  137.1011  154.2245 N.ar    1  UNL1       -0.0606
     14 O         139.9447  136.8759  155.3322 O.2     1  UNL1       -0.3374
     15 C         139.6798  137.8929  156.4025 C.ar    1  UNL1        0.2359
     16 N         138.5300  138.7466  155.9564 N.ar    1  UNL1       -0.1949
     17 C         142.7306  139.0383  164.0922 C.3     1  UNL1        0.0774
     18 C         144.0294  139.0622  164.8422 C.3     1  UNL1        0.0259
     19 C         142.7357  139.2548  165.5765 C.3     1  UNL1        0.0420
     20 C         141.9917  139.4910  166.8574 C.ar    1  UNL1       -0.0208
     21 C         140.5349  139.8469  166.8239 C.ar    1  UNL1       -0.0042
     22 C         139.7909  140.0831  168.1048 C.ar    1  UNL1       -0.0003
     23 C         140.5037  139.9635  169.4192 C.ar    1  UNL1       -0.0000
     24 C         141.9605  139.6076  169.4527 C.ar    1  UNL1       -0.0003
     25 C         142.7045  139.3714  168.1717 C.ar    1  UNL1       -0.0042
@<TRIPOS>BOND
     1    11    12    1
     2    12    13   ar
     3    13    14   ar
     4    14    15   ar
     5    15     1    1
     6     1     2    1
     7     2     3    1
     8     3     4    1
     9     4     5   am
    10     5     6    2
    11     5     7   am
    12     7    17    1
    13    17    18    1
    14    18    19    1
    15    19    20    1
    16    20    21   ar
    17    21    22   ar
    18    22    23   ar
    19    23    24   ar
    20    24    25   ar
    21     4     8    1
    22     8     9    1
    23    15    16   ar
    24    16    12   ar
    25     9     1    1
    26    19    17    1
    27    25    20   ar
    28     7    10    1
