@<TRIPOS>MOLECULE
*****
 40 42 0 0 0
SMALL
GASTEIGER

@<TRIPOS>ATOM
      1 C         145.0180  142.5432  158.0671 C.3     1  UNL1        0.0577
      2 C         143.6346  142.6560  157.4986 C.3     1  UNL1        0.0177
      3 C         142.4505  142.7327  158.4162 C.3     1  UNL1        0.0210
      4 C         142.6499  142.6967  159.9025 C.3     1  UNL1        0.0734
      5 C         144.0333  142.5839  160.4710 C.3     1  UNL1        0.0433
      6 C         145.2174  142.5072  159.5533 C.3     1  UNL1        0.0194
      7 N         141.4658  142.7734  160.8201 N.am    1  UNL1       -0.3045
      8 C         140.8631  144.1050  161.1570 C.2     1  UNL1        0.2425
      9 O         141.4444  145.3599  160.5763 O.2     1  UNL1       -0.2733
     10 H         141.0843  141.9498  161.2013 H       1  UNL1        0.1494
     11 C         139.6790  144.1817  162.0747 C.3     1  UNL1        0.1759
     12 N         139.7227  143.5064  163.4135 N.am    1  UNL1       -0.2931
     13 C         139.4314  142.0391  163.5232 C.2     1  UNL1        0.2462
     14 O         139.0964  141.2470  162.2941 O.2     1  UNL1       -0.2701
     15 H         139.9426  144.0263  164.2201 H       1  UNL1        0.1502
     16 C         139.4751  141.3638  164.8618 C.ar    1  UNL1        0.0533
     17 C         140.3013  141.9471  165.9695 C.ar    1  UNL1        0.0045
     18 C         140.3449  141.2718  167.3082 C.ar    1  UNL1        0.0001
     19 C         139.5624  140.0131  167.5392 C.ar    1  UNL1        0.0039
     20 C         138.7361  139.4298  166.4314 C.ar    1  UNL1        0.0716
     21 C         138.6925  140.1051  165.0928 C.ar    1  UNL1        0.0084
     22 C         137.9536  138.1711  166.6624 C.3     1  UNL1        0.4186
     23 F         137.1710  136.9124  166.8933 F       1  UNL1       -0.1659
     24 F         137.3668  138.7646  167.9087 F       1  UNL1       -0.1659
     25 F         138.5404  137.5776  165.4160 F       1  UNL1       -0.1659
     26 N         146.2021  142.4665  157.1494 N.3     1  UNL1       -0.2741
     27 C         147.5121  143.0685  157.5635 C.3     1  UNL1        0.0896
     28 C         145.6691  140.3459  155.7464 C.3     1  UNL1        0.0173
     29 C         146.0761  141.7878  155.8178 C.3     1  UNL1        0.0576
     30 C         146.3573  142.5510  154.5574 C.3     1  UNL1        0.0173
     31 C         144.2328  142.5479  161.9573 C.3     1  UNL1        0.1576
     32 S         143.6599  141.4204  162.7638 S.O2    1  UNL1        0.0087
     33 O         144.5317  140.4489  162.0249 O.2     1  UNL1       -0.1686
     34 O         142.7880  142.3919  163.5026 O.2     1  UNL1       -0.1686
     35 C         143.0869  140.2928  163.5703 C.ar    1  UNL1        0.1057
     36 C         142.1285  139.3286  162.9364 C.ar    1  UNL1        0.0183
     37 C         141.5556  138.2011  163.7428 C.ar    1  UNL1        0.0013
     38 C         141.9411  138.0377  165.1831 C.ar    1  UNL1        0.0001
     39 C         142.8995  139.0019  165.8171 C.ar    1  UNL1        0.0013
     40 C         143.4724  140.1294  165.0106 C.ar    1  UNL1        0.0183
@<TRIPOS>BOND
     1    28    29    1
     2    29    30    1
     3    29    26    1
     4    26    27    1
     5     1    26    1
     6     1     2    1
     7     2     3    1
     8     3     4    1
     9     4     7    1
    10     7     8   am
    11     8     9    2
    12     8    11    1
    13    11    12    1
    14    12    13   am
    15    13    14    2
    16    13    16    1
    17    16    17   ar
    18    17    18   ar
    19    18    19   ar
    20    19    20   ar
    21    20    22    1
    22    22    23    1
    23    22    24    1
    24    22    25    1
    25    20    21   ar
    26     4     5    1
    27     5    31    1
    28    31    32    1
    29    32    33    2
    30    32    34    2
    31    32    35    1
    32    35    36   ar
    33    36    37   ar
    34    37    38   ar
    35    38    39   ar
    36    39    40   ar
    37     5     6    1
    38     6     1    1
    39    21    16   ar
    40    40    35   ar
    41     7    10    1
    42    12    15    1
@<TRIPOS>MOLECULE
*****
 40 42 0 0 0
SMALL
GASTEIGER

@<TRIPOS>ATOM
      1 C         141.9392  136.8594  156.2446 C.3     1  UNL1        0.0577
      2 C         140.4452  136.9819  156.1900 C.3     1  UNL1        0.0177
      3 C         139.7252  137.8324  157.1941 C.3     1  UNL1        0.0210
      4 C         140.4992  138.5604  158.2528 C.3     1  UNL1        0.0734
      5 C         141.9931  138.4379  158.3075 C.3     1  UNL1        0.0433
      6 C         142.7131  137.5874  157.3033 C.3     1  UNL1        0.0194
      7 N         139.7791  139.4109  159.2570 N.am    1  UNL1       -0.3045
      8 C         139.5884  140.8762  158.9995 C.2     1  UNL1        0.2425
      9 O         140.1178  141.4912  157.7378 O.2     1  UNL1       -0.2733
     10 H         139.4317  139.0073  160.0850 H       1  UNL1        0.1494
     11 C         138.8684  141.7267  160.0036 C.3     1  UNL1        0.1759
     12 N         139.1650  141.5739  161.4661 N.am    1  UNL1       -0.2931
     13 C         138.5677  140.4345  162.2374 C.2     1  UNL1        0.2462
     14 O         137.6739  139.4478  161.5462 O.2     1  UNL1       -0.2701
     15 H         139.7517  142.2215  161.9196 H       1  UNL1        0.1502
     16 C         138.8643  140.2817  163.6998 C.ar    1  UNL1        0.0533
     17 C         139.8188  141.2222  164.3738 C.ar    1  UNL1        0.0045
     18 C         140.1153  141.0693  165.8363 C.ar    1  UNL1        0.0001
     19 C         139.4573  139.9760  166.6247 C.ar    1  UNL1        0.0039
     20 C         138.5028  139.0354  165.9506 C.ar    1  UNL1        0.0716
     21 C         138.2063  139.1882  164.4882 C.ar    1  UNL1        0.0084
     22 C         137.8449  137.9420  166.7390 C.3     1  UNL1        0.4186
     23 F         137.1869  136.8487  167.5275 F       1  UNL1       -0.1659
     24 F         137.4451  138.9381  167.7868 F       1  UNL1       -0.1659
     25 F         138.2446  136.9460  165.6912 F       1  UNL1       -0.1659
     26 N         142.6592  136.0089  155.2405 N.3     1  UNL1       -0.2741
     27 C         144.1131  135.6926  155.4306 C.3     1  UNL1        0.0896
     28 C         141.4309  134.0586  154.0416 C.3     1  UNL1        0.0173
     29 C         141.9254  135.4748  154.0463 C.3     1  UNL1        0.0576
     30 C         141.6860  136.3568  152.8568 C.3     1  UNL1        0.0173
     31 C         142.7671  139.1660  159.3662 C.3     1  UNL1        0.1576
     32 S         142.5615  138.8263  160.8127 S.O2    1  UNL1        0.0087
     33 O         142.1484  140.2421  161.0864 O.2     1  UNL1       -0.1686
     34 O         142.9746  137.4106  160.5390 O.2     1  UNL1       -0.1686
     35 C         142.3558  138.4867  162.2592 C.ar    1  UNL1        0.1057
     36 C         143.1869  139.1574  163.3126 C.ar    1  UNL1        0.0183
     37 C         142.9813  138.8179  164.7591 C.ar    1  UNL1        0.0013
     38 C         141.9446  137.8076  165.1522 C.ar    1  UNL1        0.0001
     39 C         141.1136  137.1368  164.0989 C.ar    1  UNL1        0.0013
     40 C         141.3192  137.4764  162.6524 C.ar    1  UNL1        0.0183
@<TRIPOS>BOND
     1    28    29    1
     2    29    30    1
     3    29    26    1
     4    26    27    1
     5     1    26    1
     6     1     2    1
     7     2     3    1
     8     3     4    1
     9     4     7    1
    10     7     8   am
    11     8     9    2
    12     8    11    1
    13    11    12    1
    14    12    13   am
    15    13    14    2
    16    13    16    1
    17    16    17   ar
    18    17    18   ar
    19    18    19   ar
    20    19    20   ar
    21    20    22    1
    22    22    23    1
    23    22    24    1
    24    22    25    1
    25    20    21   ar
    26     4     5    1
    27     5    31    1
    28    31    32    1
    29    32    33    2
    30    32    34    2
    31    32    35    1
    32    35    36   ar
    33    36    37   ar
    34    37    38   ar
    35    38    39   ar
    36    39    40   ar
    37     5     6    1
    38     6     1    1
    39    21    16   ar
    40    40    35   ar
    41     7    10    1
    42    12    15    1
@<TRIPOS>MOLECULE
*****
 40 42 0 0 0
SMALL
GASTEIGER

@<TRIPOS>ATOM
      1 C         140.0264  144.6584  157.8704 C.3     1  UNL1        0.0577
      2 C         139.1135  143.4762  158.0078 C.3     1  UNL1        0.0177
      3 C         138.8655  142.8731  159.3586 C.3     1  UNL1        0.0210
      4 C         139.5305  143.4521  160.5721 C.3     1  UNL1        0.0734
      5 C         140.4434  144.6343  160.4347 C.3     1  UNL1        0.0433
      6 C         140.6914  145.2374  159.0838 C.3     1  UNL1        0.0194
      7 N         139.2825  142.8490  161.9229 N.am    1  UNL1       -0.3045
      8 C         138.3200  143.5015  162.8704 C.2     1  UNL1        0.2425
      9 O         137.6054  144.7573  162.4670 O.2     1  UNL1       -0.2733
     10 H         139.7515  142.0248  162.1876 H       1  UNL1        0.1494
     11 C         138.0720  142.8984  164.2212 C.3     1  UNL1        0.1759
     12 N         139.2176  142.6698  165.1622 N.am    1  UNL1       -0.2931
     13 C         139.4893  141.2932  165.6925 C.2     1  UNL1        0.2462
     14 O         138.6155  140.1452  165.2817 O.2     1  UNL1       -0.2701
     15 H         139.7910  143.4232  165.4318 H       1  UNL1        0.1502
     16 C         140.6348  141.0646  166.6335 C.ar    1  UNL1        0.0533
     17 C         141.4544  139.8128  166.5272 C.ar    1  UNL1        0.0045
     18 C         142.6000  139.5843  167.4683 C.ar    1  UNL1        0.0001
     19 C         142.9258  140.6074  168.5156 C.ar    1  UNL1        0.0039
     20 C         142.1062  141.8591  168.6220 C.ar    1  UNL1        0.0716
     21 C         140.9607  142.0877  167.6810 C.ar    1  UNL1        0.0084
     22 C         142.4320  142.8822  169.6693 C.3     1  UNL1        0.4186
     23 F         142.7578  143.9054  170.7167 F       1  UNL1       -0.1659
     24 F         141.0616  143.4731  169.5185 F       1  UNL1       -0.1659
     25 F         143.8024  142.2914  169.8201 F       1  UNL1       -0.1659
     26 N         140.2744  145.2615  156.5196 N.3     1  UNL1       -0.2741
     27 C         141.5835  145.0315  155.8244 C.3     1  UNL1        0.0896
     28 C         138.1670  145.4409  155.0107 C.3     1  UNL1        0.0173
     29 C         139.2133  146.0946  155.8639 C.3     1  UNL1        0.0576
     30 C         139.1985  147.5816  156.0615 C.3     1  UNL1        0.0173
     31 C         141.1084  145.2134  161.6481 C.3     1  UNL1        0.1576
     32 S         142.1084  144.4002  162.4153 S.O2    1  UNL1        0.0087
     33 O         142.9739  144.3117  161.1935 O.2     1  UNL1       -0.1686
     34 O         141.2429  144.4887  163.6372 O.2     1  UNL1       -0.1686
     35 C         143.1085  143.5869  163.1825 C.ar    1  UNL1        0.1057
     36 C         142.9565  143.4151  164.6649 C.ar    1  UNL1        0.0183
     37 C         143.9565  142.6019  165.4321 C.ar    1  UNL1        0.0013
     38 C         145.1085  141.9604  164.7169 C.ar    1  UNL1        0.0001
     39 C         145.2604  142.1322  163.2346 C.ar    1  UNL1        0.0013
     40 C         144.2604  142.9454  162.4674 C.ar    1  UNL1        0.0183
@<TRIPOS>BOND
     1    28    29    1
     2    29    30    1
     3    29    26    1
     4    26    27    1
     5     1    26    1
     6     1     2    1
     7     2     3    1
     8     3     4    1
     9     4     7    1
    10     7     8   am
    11     8     9    2
    12     8    11    1
    13    11    12    1
    14    12    13   am
    15    13    14    2
    16    13    16    1
    17    16    17   ar
    18    17    18   ar
    19    18    19   ar
    20    19    20   ar
    21    20    22    1
    22    22    23    1
    23    22    24    1
    24    22    25    1
    25    20    21   ar
    26     4     5    1
    27     5    31    1
    28    31    32    1
    29    32    33    2
    30    32    34    2
    31    32    35    1
    32    35    36   ar
    33    36    37   ar
    34    37    38   ar
    35    38    39   ar
    36    39    40   ar
    37     5     6    1
    38     6     1    1
    39    21    16   ar
    40    40    35   ar
    41     7    10    1
    42    12    15    1
@<TRIPOS>MOLECULE
*****
 40 42 0 0 0
SMALL
GASTEIGER

@<TRIPOS>ATOM
      1 C         140.7306  144.4789  156.3904 C.3     1  UNL1        0.0577
      2 C         140.9676  143.0109  156.1940 C.3     1  UNL1        0.0177
      3 C         141.3625  142.1524  157.3589 C.3     1  UNL1        0.0210
      4 C         141.5203  142.7620  158.7203 C.3     1  UNL1        0.0734
      5 C         141.2834  144.2300  158.9168 C.3     1  UNL1        0.0433
      6 C         140.8885  145.0885  157.7518 C.3     1  UNL1        0.0194
      7 N         141.9152  141.9035  159.8853 N.am    1  UNL1       -0.3045
      8 C         143.3644  141.7262  160.2292 C.2     1  UNL1        0.2425
      9 O         144.4189  142.4075  159.4081 O.2     1  UNL1       -0.2733
     10 H         141.2232  141.4564  160.4242 H       1  UNL1        0.1494
     11 C         143.7593  140.8678  161.3941 C.3     1  UNL1        0.1759
     12 N         143.1502  141.1085  162.7436 N.am    1  UNL1       -0.2931
     13 C         141.7766  140.5896  163.0499 C.2     1  UNL1        0.2462
     14 O         141.0120  139.8299  162.0066 O.2     1  UNL1       -0.2701
     15 H         143.6521  141.6071  163.4283 H       1  UNL1        0.1502
     16 C         141.1675  140.8303  164.3994 C.ar    1  UNL1        0.0533
     17 C         141.6463  141.9727  165.2453 C.ar    1  UNL1        0.0045
     18 C         141.0372  142.2134  166.5949 C.ar    1  UNL1        0.0001
     19 C         139.9494  141.3117  167.0984 C.ar    1  UNL1        0.0039
     20 C         139.4706  140.1692  166.2524 C.ar    1  UNL1        0.0716
     21 C         140.0797  139.9285  164.9029 C.ar    1  UNL1        0.0084
     22 C         138.3828  139.2675  166.7559 C.3     1  UNL1        0.4186
     23 F         137.2950  138.3657  167.2595 F       1  UNL1       -0.1659
     24 F         138.7554  139.6070  168.1687 F       1  UNL1       -0.1659
     25 F         138.0103  138.9280  165.3431 F       1  UNL1       -0.1659
     26 N         140.3358  145.3374  155.2255 N.3     1  UNL1       -0.2741
     27 C         141.2631  145.4876  154.0561 C.3     1  UNL1        0.0896
     28 C         137.7462  145.2694  155.0274 C.3     1  UNL1        0.0173
     29 C         139.0136  146.0457  155.2299 C.3     1  UNL1        0.0576
     30 C         138.9588  147.5304  155.4367 C.3     1  UNL1        0.0173
     31 C         141.4412  144.8396  160.2782 C.3     1  UNL1        0.1576
     32 S         140.5229  144.4340  161.3927 S.O2    1  UNL1        0.0087
     33 O         139.3472  144.9309  160.6049 O.2     1  UNL1       -0.1686
     34 O         141.6986  143.9370  162.1806 O.2     1  UNL1       -0.1686
     35 C         139.6045  144.0282  162.5072 C.ar    1  UNL1        0.1057
     36 C         139.5742  144.8211  163.7802 C.ar    1  UNL1        0.0183
     37 C         138.6559  144.4154  164.8947 C.ar    1  UNL1        0.0013
     38 C         137.7679  143.2170  164.7362 C.ar    1  UNL1        0.0001
     39 C         137.7983  142.4241  163.4632 C.ar    1  UNL1        0.0013
     40 C         138.7166  142.8298  162.3487 C.ar    1  UNL1        0.0183
@<TRIPOS>BOND
     1    28    29    1
     2    29    30    1
     3    29    26    1
     4    26    27    1
     5     1    26    1
     6     1     2    1
     7     2     3    1
     8     3     4    1
     9     4     7    1
    10     7     8   am
    11     8     9    2
    12     8    11    1
    13    11    12    1
    14    12    13   am
    15    13    14    2
    16    13    16    1
    17    16    17   ar
    18    17    18   ar
    19    18    19   ar
    20    19    20   ar
    21    20    22    1
    22    22    23    1
    23    22    24    1
    24    22    25    1
    25    20    21   ar
    26     4     5    1
    27     5    31    1
    28    31    32    1
    29    32    33    2
    30    32    34    2
    31    32    35    1
    32    35    36   ar
    33    36    37   ar
    34    37    38   ar
    35    38    39   ar
    36    39    40   ar
    37     5     6    1
    38     6     1    1
    39    21    16   ar
    40    40    35   ar
    41     7    10    1
    42    12    15    1
@<TRIPOS>MOLECULE
*****
 40 42 0 0 0
SMALL
GASTEIGER

@<TRIPOS>ATOM
      1 C         141.8578  136.5865  156.6135 C.3     1  UNL1        0.0577
      2 C         140.4318  137.0345  156.4881 C.3     1  UNL1        0.0177
      3 C         139.9178  138.1506  157.3485 C.3     1  UNL1        0.0210
      4 C         140.8299  138.8185  158.3343 C.3     1  UNL1        0.0734
      5 C         142.2559  138.3705  158.4597 C.3     1  UNL1        0.0433
      6 C         142.7698  137.2544  157.5993 C.3     1  UNL1        0.0194
      7 N         140.3159  139.9346  159.1947 N.am    1  UNL1       -0.3045
      8 C         139.3839  139.6369  160.3317 C.2     1  UNL1        0.2425
      9 O         138.9658  138.2231  160.6083 O.2     1  UNL1       -0.2733
     10 H         140.5904  140.8625  159.0132 H       1  UNL1        0.1494
     11 C         138.8700  140.7529  161.1921 C.3     1  UNL1        0.1759
     12 N         139.6604  141.2062  162.3837 N.am    1  UNL1       -0.2931
     13 C         139.4370  140.5634  163.7205 C.2     1  UNL1        0.2462
     14 O         138.4233  139.4673  163.8656 O.2     1  UNL1       -0.2701
     15 H         140.3257  141.9256  162.2885 H       1  UNL1        0.1502
     16 C         140.2273  141.0166  164.9121 C.ar    1  UNL1        0.0533
     17 C         139.7092  140.7623  166.2966 C.ar    1  UNL1        0.0045
     18 C         140.4995  141.2156  167.4882 C.ar    1  UNL1        0.0001
     19 C         141.8080  141.9231  167.2953 C.ar    1  UNL1        0.0039
     20 C         142.3262  142.1775  165.9108 C.ar    1  UNL1        0.0716
     21 C         141.5359  141.7242  164.7192 C.ar    1  UNL1        0.0084
     22 C         143.6346  142.8850  165.7179 C.3     1  UNL1        0.4186
     23 F         144.9432  143.5926  165.5251 F       1  UNL1       -0.1659
     24 F         143.8865  142.8220  167.1952 F       1  UNL1       -0.1659
     25 F         143.3828  142.9480  164.2406 F       1  UNL1       -0.1659
     26 N         142.3717  135.4704  155.7531 N.3     1  UNL1       -0.2741
     27 C         142.7302  135.7321  154.3203 C.3     1  UNL1        0.0896
     28 C         143.4552  133.8608  157.4808 C.3     1  UNL1        0.0173
     29 C         142.5271  134.0927  156.3255 C.3     1  UNL1        0.0576
     30 C         141.7544  132.9467  155.7425 C.3     1  UNL1        0.0173
     31 C         143.1680  139.0385  159.4456 C.3     1  UNL1        0.1576
     32 S         142.9896  138.7973  160.9153 S.O2    1  UNL1        0.0087
     33 O         143.4370  137.3768  160.7365 O.2     1  UNL1       -0.1686
     34 O         142.5421  140.2177  161.0941 O.2     1  UNL1       -0.1686
     35 C         142.8111  138.5560  162.3850 C.ar    1  UNL1        0.1057
     36 C         143.8049  139.1106  163.3622 C.ar    1  UNL1        0.0183
     37 C         143.6266  138.8693  164.8318 C.ar    1  UNL1        0.0013
     38 C         142.4544  138.0735  165.3243 C.ar    1  UNL1        0.0001
     39 C         141.4606  137.5189  164.3472 C.ar    1  UNL1        0.0013
     40 C         141.6390  137.7601  162.8775 C.ar    1  UNL1        0.0183
@<TRIPOS>BOND
     1    28    29    1
     2    29    30    1
     3    29    26    1
     4    26    27    1
     5     1    26    1
     6     1     2    1
     7     2     3    1
     8     3     4    1
     9     4     7    1
    10     7     8   am
    11     8     9    2
    12     8    11    1
    13    11    12    1
    14    12    13   am
    15    13    14    2
    16    13    16    1
    17    16    17   ar
    18    17    18   ar
    19    18    19   ar
    20    19    20   ar
    21    20    22    1
    22    22    23    1
    23    22    24    1
    24    22    25    1
    25    20    21   ar
    26     4     5    1
    27     5    31    1
    28    31    32    1
    29    32    33    2
    30    32    34    2
    31    32    35    1
    32    35    36   ar
    33    36    37   ar
    34    37    38   ar
    35    38    39   ar
    36    39    40   ar
    37     5     6    1
    38     6     1    1
    39    21    16   ar
    40    40    35   ar
    41     7    10    1
    42    12    15    1
@<TRIPOS>MOLECULE
*****
 40 42 0 0 0
SMALL
GASTEIGER

@<TRIPOS>ATOM
      1 C         142.7988  141.7671  157.2432 C.3     1  UNL1        0.0577
      2 C         142.5007  143.1974  157.5829 C.3     1  UNL1        0.0177
      3 C         141.7042  143.5263  158.8107 C.3     1  UNL1        0.0210
      4 C         141.2058  142.4249  159.6987 C.3     1  UNL1        0.0734
      5 C         141.5039  140.9947  159.3589 C.3     1  UNL1        0.0433
      6 C         142.3004  140.6658  158.1311 C.3     1  UNL1        0.0194
      7 N         140.4093  142.7538  160.9265 N.am    1  UNL1       -0.3045
      8 C         138.9251  142.9471  160.8281 C.2     1  UNL1        0.2425
      9 O         138.2373  142.8115  159.5019 O.2     1  UNL1       -0.2733
     10 H         140.8607  142.8428  161.7968 H       1  UNL1        0.1494
     11 C         138.1286  143.2760  162.0559 C.3     1  UNL1        0.1759
     12 N         138.2030  142.3838  163.2594 N.am    1  UNL1       -0.2931
     13 C         139.3139  142.5553  164.2526 C.2     1  UNL1        0.2462
     14 O         140.3504  143.6191  164.0423 O.2     1  UNL1       -0.2701
     15 H         137.5227  141.6856  163.3975 H       1  UNL1        0.1502
     16 C         139.3884  141.6632  165.4561 C.ar    1  UNL1        0.0533
     17 C         140.1656  142.0962  166.6638 C.ar    1  UNL1        0.0045
     18 C         140.2400  141.2040  167.8674 C.ar    1  UNL1        0.0001
     19 C         139.5372  139.8788  167.8632 C.ar    1  UNL1        0.0039
     20 C         138.7600  139.4458  166.6556 C.ar    1  UNL1        0.0716
     21 C         138.6856  140.3379  165.4520 C.ar    1  UNL1        0.0084
     22 C         138.0573  138.1206  166.6514 C.3     1  UNL1        0.4186
     23 F         137.3544  136.7954  166.6473 F       1  UNL1       -0.1659
     24 F         137.2261  138.5578  167.8210 F       1  UNL1       -0.1659
     25 F         138.8884  137.6835  165.4818 F       1  UNL1       -0.1659
     26 N         143.5953  141.4383  156.0154 N.3     1  UNL1       -0.2741
     27 C         142.9317  141.4321  154.6702 C.3     1  UNL1        0.0896
     28 C         145.6109  139.8967  155.4575 C.3     1  UNL1        0.0173
     29 C         145.0555  141.1156  156.1328 C.3     1  UNL1        0.0576
     30 C         145.9603  142.0117  156.9255 C.3     1  UNL1        0.0173
     31 C         141.0055  139.8932  160.2469 C.3     1  UNL1        0.1576
     32 S         141.4779  139.8035  161.6677 S.O2    1  UNL1        0.0087
     33 O         140.0656  139.9622  162.1474 O.2     1  UNL1       -0.1686
     34 O         142.8902  139.6447  161.1880 O.2     1  UNL1       -0.1686
     35 C         141.9504  139.7137  163.0886 C.ar    1  UNL1        0.1057
     36 C         141.6901  138.4717  163.8884 C.ar    1  UNL1        0.0183
     37 C         142.1625  138.3819  165.3092 C.ar    1  UNL1        0.0013
     38 C         142.8952  139.5341  165.9302 C.ar    1  UNL1        0.0001
     39 C         143.1555  140.7761  165.1303 C.ar    1  UNL1        0.0013
     40 C         142.6831  140.8659  163.7095 C.ar    1  UNL1        0.0183
@<TRIPOS>BOND
     1    28    29    1
     2    29    30    1
     3    29    26    1
     4    26    27    1
     5     1    26    1
     6     1     2    1
     7     2     3    1
     8     3     4    1
     9     4     7    1
    10     7     8   am
    11     8     9    2
    12     8    11    1
    13    11    12    1
    14    12    13   am
    15    13    14    2
    16    13    16    1
    17    16    17   ar
    18    17    18   ar
    19    18    19   ar
    20    19    20   ar
    21    20    22    1
    22    22    23    1
    23    22    24    1
    24    22    25    1
    25    20    21   ar
    26     4     5    1
    27     5    31    1
    28    31    32    1
    29    32    33    2
    30    32    34    2
    31    32    35    1
    32    35    36   ar
    33    36    37   ar
    34    37    38   ar
    35    38    39   ar
    36    39    40   ar
    37     5     6    1
    38     6     1    1
    39    21    16   ar
    40    40    35   ar
    41     7    10    1
    42    12    15    1
@<TRIPOS>MOLECULE
*****
 40 42 0 0 0
SMALL
GASTEIGER

@<TRIPOS>ATOM
      1 C         141.4909  137.3712  157.2441 C.3     1  UNL1        0.0577
      2 C         140.1185  137.9699  157.3333 C.3     1  UNL1        0.0177
      3 C         139.8281  139.0313  158.3526 C.3     1  UNL1        0.0210
      4 C         140.9101  139.4941  159.2827 C.3     1  UNL1        0.0734
      5 C         142.2826  138.8954  159.1934 C.3     1  UNL1        0.0433
      6 C         142.5729  137.8339  158.1741 C.3     1  UNL1        0.0194
      7 N         140.6198  140.5556  160.3019 N.am    1  UNL1       -0.3045
      8 C         140.8698  141.9979  159.9748 C.2     1  UNL1        0.2425
      9 O         141.4102  142.3789  158.6284 O.2     1  UNL1       -0.2733
     10 H         140.2651  140.3056  161.1856 H       1  UNL1        0.1494
     11 C         140.5794  143.0594  160.9941 C.3     1  UNL1        0.1759
     12 N         141.1229  142.9311  162.3863 N.am    1  UNL1       -0.2931
     13 C         140.4365  142.0420  163.3804 C.2     1  UNL1        0.2462
     14 O         139.2065  141.2812  162.9824 O.2     1  UNL1       -0.2701
     15 H         141.9302  143.4304  162.6476 H       1  UNL1        0.1502
     16 C         140.9800  141.9136  164.7726 C.ar    1  UNL1        0.0533
     17 C         142.3743  142.3743  165.0788 C.ar    1  UNL1        0.0045
     18 C         142.9177  142.2460  166.4711 C.ar    1  UNL1        0.0001
     19 C         142.0670  141.6569  167.5569 C.ar    1  UNL1        0.0039
     20 C         140.6727  141.1962  167.2507 C.ar    1  UNL1        0.0716
     21 C         140.1292  141.3245  165.8585 C.ar    1  UNL1        0.0084
     22 C         139.8220  140.6071  168.3365 C.3     1  UNL1        0.4186
     23 F         138.9712  140.0180  169.4225 F       1  UNL1       -0.1659
     24 F         140.3301  141.6420  169.2961 F       1  UNL1       -0.1659
     25 F         139.3138  139.5722  167.3770 F       1  UNL1       -0.1659
     26 N         141.7813  136.3097  156.2248 N.3     1  UNL1       -0.2741
     27 C         140.7431  135.9444  155.2057 C.3     1  UNL1        0.0896
     28 C         144.2518  136.1769  155.4318 C.3     1  UNL1        0.0173
     29 C         143.1099  135.6135  156.2246 C.3     1  UNL1        0.0576
     30 C         143.2967  134.3538  157.0174 C.3     1  UNL1        0.0173
     31 C         143.3647  139.3582  160.1235 C.3     1  UNL1        0.1576
     32 S         143.2349  139.1259  161.5996 S.O2    1  UNL1        0.0087
     33 O         143.1961  137.6452  161.3632 O.2     1  UNL1       -0.1686
     34 O         143.2737  140.6066  161.8361 O.2     1  UNL1       -0.1686
     35 C         143.1051  138.8936  163.0759 C.ar    1  UNL1        0.1057
     36 C         144.2435  139.2336  163.9916 C.ar    1  UNL1        0.0183
     37 C         144.1138  139.0013  165.4677 C.ar    1  UNL1        0.0013
     38 C         142.8457  138.4289  166.0283 C.ar    1  UNL1        0.0001
     39 C         141.7073  138.0889  165.1126 C.ar    1  UNL1        0.0013
     40 C         141.8370  138.3212  163.6364 C.ar    1  UNL1        0.0183
@<TRIPOS>BOND
     1    28    29    1
     2    29    30    1
     3    29    26    1
     4    26    27    1
     5     1    26    1
     6     1     2    1
     7     2     3    1
     8     3     4    1
     9     4     7    1
    10     7     8   am
    11     8     9    2
    12     8    11    1
    13    11    12    1
    14    12    13   am
    15    13    14    2
    16    13    16    1
    17    16    17   ar
    18    17    18   ar
    19    18    19   ar
    20    19    20   ar
    21    20    22    1
    22    22    23    1
    23    22    24    1
    24    22    25    1
    25    20    21   ar
    26     4     5    1
    27     5    31    1
    28    31    32    1
    29    32    33    2
    30    32    34    2
    31    32    35    1
    32    35    36   ar
    33    36    37   ar
    34    37    38   ar
    35    38    39   ar
    36    39    40   ar
    37     5     6    1
    38     6     1    1
    39    21    16   ar
    40    40    35   ar
    41     7    10    1
    42    12    15    1
@<TRIPOS>MOLECULE
*****
 40 42 0 0 0
SMALL
GASTEIGER

@<TRIPOS>ATOM
      1 C         139.1371  142.5383  157.6371 C.3     1  UNL1        0.0577
      2 C         140.5951  142.8799  157.7236 C.3     1  UNL1        0.0177
      3 C         141.2211  143.1640  159.0568 C.3     1  UNL1        0.0210
      4 C         140.3891  143.1063  160.3035 C.3     1  UNL1        0.0734
      5 C         138.9311  142.7647  160.2171 C.3     1  UNL1        0.0433
      6 C         138.3051  142.4806  158.8839 C.3     1  UNL1        0.0194
      7 N         141.0151  143.3904  161.6368 N.am    1  UNL1       -0.3045
      8 C         140.9961  144.7834  162.1927 C.2     1  UNL1        0.2425
      9 O         140.3510  145.8924  161.4155 O.2     1  UNL1       -0.2733
     10 H         141.4384  142.6625  162.1469 H       1  UNL1        0.1494
     11 C         141.6221  145.0674  163.5260 C.3     1  UNL1        0.1759
     12 N         141.3351  144.1726  164.6952 N.am    1  UNL1       -0.2931
     13 C         142.0699  142.8733  164.8434 C.2     1  UNL1        0.2462
     14 O         143.0917  142.4689  163.8224 O.2     1  UNL1       -0.2701
     15 H         140.6644  144.4380  165.3653 H       1  UNL1        0.1502
     16 C         141.7829  141.9785  166.0125 C.ar    1  UNL1        0.0533
     17 C         142.2537  140.5544  166.0003 C.ar    1  UNL1        0.0045
     18 C         141.9668  139.6595  167.1695 C.ar    1  UNL1        0.0001
     19 C         141.2090  140.1889  168.3509 C.ar    1  UNL1        0.0039
     20 C         140.7382  141.6130  168.3631 C.ar    1  UNL1        0.0716
     21 C         141.0252  142.5078  167.1939 C.ar    1  UNL1        0.0084
     22 C         139.9805  142.1424  169.5444 C.3     1  UNL1        0.4186
     23 F         139.2227  142.6717  170.7258 F       1  UNL1       -0.1659
     24 F         139.2033  140.8617  169.6197 F       1  UNL1       -0.1659
     25 F         140.7577  143.4231  169.4691 F       1  UNL1       -0.1659
     26 N         138.5111  142.2542  156.3039 N.3     1  UNL1       -0.2741
     27 C         138.6673  143.2331  155.1782 C.3     1  UNL1        0.0896
     28 C         138.4409  139.7148  155.7594 C.3     1  UNL1        0.0173
     29 C         137.7289  140.9913  156.0964 C.3     1  UNL1        0.0576
     30 C         136.2345  141.0048  156.2260 C.3     1  UNL1        0.0173
     31 C         138.0990  142.7070  161.4639 C.3     1  UNL1        0.1576
     32 S         138.2675  141.5686  162.4260 S.O2    1  UNL1        0.0087
     33 O         137.6598  140.6321  161.4243 O.2     1  UNL1       -0.1686
     34 O         138.8752  142.5052  163.4277 O.2     1  UNL1       -0.1686
     35 C         138.4359  140.4302  163.3881 C.ar    1  UNL1        0.1057
     36 C         138.3584  140.6790  164.8653 C.ar    1  UNL1        0.0183
     37 C         138.5268  139.5406  165.8274 C.ar    1  UNL1        0.0013
     38 C         138.7727  138.1535  165.3124 C.ar    1  UNL1        0.0001
     39 C         138.8502  137.9047  163.8352 C.ar    1  UNL1        0.0013
     40 C         138.6818  139.0431  162.8730 C.ar    1  UNL1        0.0183
@<TRIPOS>BOND
     1    28    29    1
     2    29    30    1
     3    29    26    1
     4    26    27    1
     5     1    26    1
     6     1     2    1
     7     2     3    1
     8     3     4    1
     9     4     7    1
    10     7     8   am
    11     8     9    2
    12     8    11    1
    13    11    12    1
    14    12    13   am
    15    13    14    2
    16    13    16    1
    17    16    17   ar
    18    17    18   ar
    19    18    19   ar
    20    19    20   ar
    21    20    22    1
    22    22    23    1
    23    22    24    1
    24    22    25    1
    25    20    21   ar
    26     4     5    1
    27     5    31    1
    28    31    32    1
    29    32    33    2
    30    32    34    2
    31    32    35    1
    32    35    36   ar
    33    36    37   ar
    34    37    38   ar
    35    38    39   ar
    36    39    40   ar
    37     5     6    1
    38     6     1    1
    39    21    16   ar
    40    40    35   ar
    41     7    10    1
    42    12    15    1
@<TRIPOS>MOLECULE
*****
 40 42 0 0 0
SMALL
GASTEIGER

@<TRIPOS>ATOM
      1 C         139.6819  146.0732  156.2670 C.3     1  UNL1        0.0577
      2 C         139.0294  144.7780  155.8842 C.3     1  UNL1        0.0177
      3 C         139.0681  143.6115  156.8264 C.3     1  UNL1        0.0210
      4 C         139.7594  143.7401  158.1513 C.3     1  UNL1        0.0734
      5 C         140.4120  145.0354  158.5341 C.3     1  UNL1        0.0433
      6 C         140.3732  146.2019  157.5919 C.3     1  UNL1        0.0194
      7 N         139.7982  142.5736  159.0935 N.am    1  UNL1       -0.3045
      8 C         140.8170  141.4893  158.9031 C.2     1  UNL1        0.2425
      9 O         141.7971  141.5715  157.7705 O.2     1  UNL1       -0.2733
     10 H         139.1550  142.5197  159.8368 H       1  UNL1        0.1494
     11 C         140.8557  140.3227  159.8452 C.3     1  UNL1        0.1759
     12 N         141.0653  140.5507  161.3130 N.am    1  UNL1       -0.2931
     13 C         139.8872  140.5989  162.2402 C.2     1  UNL1        0.2462
     14 O         138.4995  140.4191  161.6997 O.2     1  UNL1       -0.2701
     15 H         141.9760  140.6688  161.6677 H       1  UNL1        0.1502
     16 C         140.0967  140.8269  163.7079 C.ar    1  UNL1        0.0533
     17 C         139.0470  140.3996  164.6906 C.ar    1  UNL1        0.0045
     18 C         139.2566  140.6277  166.1583 C.ar    1  UNL1        0.0001
     19 C         140.5157  141.2829  166.6433 C.ar    1  UNL1        0.0039
     20 C         141.5653  141.7102  165.6605 C.ar    1  UNL1        0.0716
     21 C         141.3558  141.4822  164.1929 C.ar    1  UNL1        0.0084
     22 C         142.8244  142.3655  166.1455 C.3     1  UNL1        0.4186
     23 F         144.0836  143.0207  166.6305 F       1  UNL1       -0.1659
     24 F         142.9341  141.3452  167.2395 F       1  UNL1       -0.1659
     25 F         142.7148  143.3858  165.0515 F       1  UNL1       -0.1659
     26 N         139.6432  147.2398  155.3248 N.3     1  UNL1       -0.2741
     27 C         138.7661  148.4186  155.6264 C.3     1  UNL1        0.0896
     28 C         141.3748  146.0581  153.7902 C.3     1  UNL1        0.0173
     29 C         140.4815  147.2275  154.0811 C.3     1  UNL1        0.0576
     30 C         140.4266  148.3846  153.1280 C.3     1  UNL1        0.0173
     31 C         141.1033  145.1641  159.8591 C.3     1  UNL1        0.1576
     32 S         140.3558  144.8728  161.1265 S.O2    1  UNL1        0.0087
     33 O         141.2710  143.7164  161.4005 O.2     1  UNL1       -0.1686
     34 O         139.4407  146.0293  160.8525 O.2     1  UNL1       -0.1686
     35 C         139.6083  144.5815  162.3940 C.ar    1  UNL1        0.1057
     36 C         138.2841  143.8790  162.3391 C.ar    1  UNL1        0.0183
     37 C         137.5366  143.5877  163.6065 C.ar    1  UNL1        0.0013
     38 C         138.1133  143.9989  164.9287 C.ar    1  UNL1        0.0001
     39 C         139.4375  144.7014  164.9836 C.ar    1  UNL1        0.0013
     40 C         140.1850  144.9927  163.7162 C.ar    1  UNL1        0.0183
@<TRIPOS>BOND
     1    28    29    1
     2    29    30    1
     3    29    26    1
     4    26    27    1
     5     1    26    1
     6     1     2    1
     7     2     3    1
     8     3     4    1
     9     4     7    1
    10     7     8   am
    11     8     9    2
    12     8    11    1
    13    11    12    1
    14    12    13   am
    15    13    14    2
    16    13    16    1
    17    16    17   ar
    18    17    18   ar
    19    18    19   ar
    20    19    20   ar
    21    20    22    1
    22    22    23    1
    23    22    24    1
    24    22    25    1
    25    20    21   ar
    26     4     5    1
    27     5    31    1
    28    31    32    1
    29    32    33    2
    30    32    34    2
    31    32    35    1
    32    35    36   ar
    33    36    37   ar
    34    37    38   ar
    35    38    39   ar
    36    39    40   ar
    37     5     6    1
    38     6     1    1
    39    21    16   ar
    40    40    35   ar
    41     7    10    1
    42    12    15    1
