@<TRIPOS>MOLECULE
*****
 29 32 0 0 0
SMALL
GASTEIGER

@<TRIPOS>ATOM
      1 N         144.2414  139.9880  163.8132 N.3     1  UNL1       -0.2700
      2 C         143.7432  139.6927  165.1969 C.3     1  UNL1        0.0897
      3 C         142.6055  138.7356  165.3960 C.3     1  UNL1        0.0897
      4 N         141.9660  138.0739  164.2114 N.3     1  UNL1       -0.2700
      5 C         142.4642  138.3692  162.8278 C.3     1  UNL1        0.0897
      6 C         143.6019  139.3262  162.6287 C.3     1  UNL1        0.0897
      7 C         145.3792  140.9450  163.6141 C.3     1  UNL1        0.0769
      8 C         145.2211  142.3875  163.9938 C.3     1  UNL1        0.0437
      9 C         141.7229  144.7529  162.4389 C.ar    1  UNL1        0.0746
     10 C         142.1369  144.8823  163.8748 C.ar    1  UNL1        0.0105
     11 C         143.3030  144.0938  164.3931 C.ar    1  UNL1       -0.0035
     12 C         144.0550  143.1760  163.4755 C.ar    1  UNL1       -0.0203
     13 C         143.6410  143.0466  162.0396 C.ar    1  UNL1        0.0032
     14 C         142.4749  143.8351  161.5213 C.ar    1  UNL1        0.0439
     15 BR        142.0608  143.7057  160.0854 Br      1  UNL1       -0.0483
     16 N         139.3908  146.3299  161.4024 N.1     1  UNL1       -0.1908
     17 C         140.5568  145.5414  161.9207 C.1     1  UNL1        0.1009
     18 C         140.8283  137.1168  164.4106 C.3     1  UNL1        0.0769
     19 C         139.4678  137.6341  164.7733 C.3     1  UNL1        0.0437
     20 C         139.0544  139.0144  164.3560 C.ar    1  UNL1       -0.0210
     21 C         138.8924  140.0924  165.3863 C.ar    1  UNL1       -0.0040
     22 C         138.4790  141.4726  164.9689 C.ar    1  UNL1        0.0059
     23 C         138.2276  141.7747  163.5213 C.ar    1  UNL1        0.0751
     24 C         138.3896  140.6966  162.4911 C.ar    1  UNL1        0.0272
     25 C         138.8030  139.3165  162.9084 C.ar    1  UNL1       -0.0047
     26 C         138.0746  141.2872  161.1487 C.3     1  UNL1        0.2356
     27 O         137.7179  142.7304  161.3494 O.3     1  UNL1       -0.4404
     28 C         137.8125  143.0316  162.8157 C.2     1  UNL1        0.3413
     29 O         137.5398  144.3571  163.4629 O.2     1  UNL1       -0.2449
@<TRIPOS>BOND
     1    16    17    3
     2    17     9    1
     3     9    10   ar
     4    10    11   ar
     5    11    12   ar
     6    12     8    1
     7     8     7    1
     8     7     1    1
     9     1     2    1
    10     2     3    1
    11     3     4    1
    12     4    18    1
    13    18    19    1
    14    19    20    1
    15    20    21   ar
    16    21    22   ar
    17    22    23   ar
    18    23    24   ar
    19    24    25   ar
    20    24    26    1
    21    26    27    1
    22    27    28    1
    23    28    29    2
    24     4     5    1
    25     5     6    1
    26    12    13   ar
    27    13    14   ar
    28    14    15    1
    29    14     9   ar
    30     6     1    1
    31    25    20   ar
    32    28    23    1
@<TRIPOS>MOLECULE
*****
 29 32 0 0 0
SMALL
GASTEIGER

@<TRIPOS>ATOM
      1 N         144.1620  139.9500  163.9372 N.3     1  UNL1       -0.2700
      2 C         143.6935  139.0255  162.8529 C.3     1  UNL1        0.0897
      3 C         142.5590  138.0793  163.1124 C.3     1  UNL1        0.0897
      4 N         141.8930  138.0575  164.4563 N.3     1  UNL1       -0.2700
      5 C         142.3615  138.9820  165.5406 C.3     1  UNL1        0.0897
      6 C         143.4961  139.9282  165.2811 C.3     1  UNL1        0.0897
      7 C         145.2966  140.8963  163.6777 C.3     1  UNL1        0.0769
      8 C         145.1603  142.3467  164.0352 C.3     1  UNL1        0.0437
      9 C         141.6834  144.7336  162.4657 C.ar    1  UNL1        0.0746
     10 C         142.2841  145.0708  163.7981 C.ar    1  UNL1        0.0105
     11 C         143.4430  144.2752  164.3213 C.ar    1  UNL1       -0.0035
     12 C         144.0014  143.1423  163.5120 C.ar    1  UNL1       -0.0203
     13 C         143.4006  142.8051  162.1795 C.ar    1  UNL1        0.0032
     14 C         142.2416  143.6008  161.6564 C.ar    1  UNL1        0.0439
     15 BR        141.6409  143.2636  160.3239 Br      1  UNL1       -0.0483
     16 N         139.3654  146.3250  161.4194 N.1     1  UNL1       -0.1908
     17 C         140.5244  145.5293  161.9425 C.1     1  UNL1        0.1009
     18 C         140.7584  137.1112  164.7159 C.3     1  UNL1        0.0769
     19 C         139.3421  137.5986  164.6361 C.3     1  UNL1        0.0437
     20 C         139.0201  138.8452  163.8664 C.ar    1  UNL1       -0.0210
     21 C         139.1231  138.8504  162.3700 C.ar    1  UNL1       -0.0040
     22 C         138.8011  140.0970  161.6004 C.ar    1  UNL1        0.0059
     23 C         138.3761  141.3384  162.3273 C.ar    1  UNL1        0.0751
     24 C         138.2731  141.3332  163.8237 C.ar    1  UNL1        0.0272
     25 C         138.5951  140.0866  164.5933 C.ar    1  UNL1       -0.0047
     26 C         137.8311  142.6977  164.2626 C.3     1  UNL1        0.2356
     27 O         137.6609  143.5463  163.0374 O.3     1  UNL1       -0.4404
     28 C         137.9978  142.7062  161.8413 C.2     1  UNL1        0.3413
     29 O         137.9625  143.1550  160.4105 O.2     1  UNL1       -0.2449
@<TRIPOS>BOND
     1    16    17    3
     2    17     9    1
     3     9    10   ar
     4    10    11   ar
     5    11    12   ar
     6    12     8    1
     7     8     7    1
     8     7     1    1
     9     1     2    1
    10     2     3    1
    11     3     4    1
    12     4    18    1
    13    18    19    1
    14    19    20    1
    15    20    21   ar
    16    21    22   ar
    17    22    23   ar
    18    23    24   ar
    19    24    25   ar
    20    24    26    1
    21    26    27    1
    22    27    28    1
    23    28    29    2
    24     4     5    1
    25     5     6    1
    26    12    13   ar
    27    13    14   ar
    28    14    15    1
    29    14     9   ar
    30     6     1    1
    31    25    20   ar
    32    28    23    1
@<TRIPOS>MOLECULE
*****
 29 32 0 0 0
SMALL
GASTEIGER

@<TRIPOS>ATOM
      1 N         139.8916  137.9394  164.2629 N.3     1  UNL1       -0.2700
      2 C         141.2419  138.0450  164.9073 C.3     1  UNL1        0.0897
      3 C         142.4769  138.0933  164.0573 C.3     1  UNL1        0.0897
      4 N         142.3614  138.0360  162.5628 N.3     1  UNL1       -0.2700
      5 C         141.0111  137.9303  161.9184 C.3     1  UNL1        0.0897
      6 C         139.7761  137.8820  162.7684 C.3     1  UNL1        0.0897
      7 C         138.6566  137.8911  165.1129 C.3     1  UNL1        0.0769
      8 C         138.0744  139.1595  165.6627 C.3     1  UNL1        0.0437
      9 C         138.5891  143.0277  163.4218 C.ar    1  UNL1        0.0746
     10 C         137.6508  141.9790  162.9021 C.ar    1  UNL1        0.0105
     11 C         137.4793  140.6896  163.6491 C.ar    1  UNL1       -0.0035
     12 C         138.2460  140.4489  164.9157 C.ar    1  UNL1       -0.0203
     13 C         139.1842  141.4975  165.4353 C.ar    1  UNL1        0.0032
     14 C         139.3557  142.7870  164.6883 C.ar    1  UNL1        0.0439
     15 BR        140.2940  143.8357  165.2079 Br      1  UNL1       -0.0483
     16 N         138.9322  145.6065  161.9278 N.1     1  UNL1       -0.1908
     17 C         138.7606  144.3171  162.6747 C.1     1  UNL1        0.1009
     18 C         143.5964  138.0843  161.7128 C.3     1  UNL1        0.0769
     19 C         144.1183  139.4022  161.2224 C.3     1  UNL1        0.0437
     20 C         144.2708  140.5502  162.1758 C.ar    1  UNL1       -0.0210
     21 C         145.1391  140.4062  163.3904 C.ar    1  UNL1       -0.0040
     22 C         145.2915  141.5541  164.3437 C.ar    1  UNL1        0.0059
     23 C         144.5757  142.8462  164.0825 C.ar    1  UNL1        0.0751
     24 C         143.7074  142.9902  162.8679 C.ar    1  UNL1        0.0272
     25 C         143.5549  141.8423  161.9146 C.ar    1  UNL1       -0.0047
     26 C         143.1297  144.3745  162.8726 C.3     1  UNL1        0.2356
     27 O         143.6410  145.0860  164.0902 O.3     1  UNL1       -0.4404
     28 C         144.5347  144.1415  164.8379 C.2     1  UNL1        0.3413
     29 O         145.2600  144.4398  166.1166 O.2     1  UNL1       -0.2449
@<TRIPOS>BOND
     1    16    17    3
     2    17     9    1
     3     9    10   ar
     4    10    11   ar
     5    11    12   ar
     6    12     8    1
     7     8     7    1
     8     7     1    1
     9     1     2    1
    10     2     3    1
    11     3     4    1
    12     4    18    1
    13    18    19    1
    14    19    20    1
    15    20    21   ar
    16    21    22   ar
    17    22    23   ar
    18    23    24   ar
    19    24    25   ar
    20    24    26    1
    21    26    27    1
    22    27    28    1
    23    28    29    2
    24     4     5    1
    25     5     6    1
    26    12    13   ar
    27    13    14   ar
    28    14    15    1
    29    14     9   ar
    30     6     1    1
    31    25    20   ar
    32    28    23    1
@<TRIPOS>MOLECULE
*****
 29 32 0 0 0
SMALL
GASTEIGER

@<TRIPOS>ATOM
      1 N         142.2903  138.6573  164.1800 N.3     1  UNL1       -0.2700
      2 C         141.0696  137.8776  164.5696 C.3     1  UNL1        0.0897
      3 C         139.9042  137.7895  163.6294 C.3     1  UNL1        0.0897
      4 N         139.9595  138.4812  162.2995 N.3     1  UNL1       -0.2700
      5 C         141.1802  139.2609  161.9099 C.3     1  UNL1        0.0897
      6 C         142.3456  139.3490  162.8501 C.3     1  UNL1        0.0897
      7 C         143.4558  138.7455  165.1202 C.3     1  UNL1        0.0769
      8 C         143.2311  138.6763  166.6016 C.3     1  UNL1        0.0437
      9 C         141.3726  142.1599  168.7604 C.ar    1  UNL1        0.0746
     10 C         142.0989  142.3803  167.4667 C.ar    1  UNL1        0.0105
     11 C         142.7184  141.2192  166.7471 C.ar    1  UNL1       -0.0035
     12 C         142.6116  139.8375  167.3212 C.ar    1  UNL1       -0.0203
     13 C         141.8853  139.6171  168.6150 C.ar    1  UNL1        0.0032
     14 C         141.2658  140.7783  169.3346 C.ar    1  UNL1        0.0439
     15 BR        140.5394  140.5579  170.6284 Br      1  UNL1       -0.0483
     16 N         140.1336  144.4824  170.1995 N.1     1  UNL1       -0.1908
     17 C         140.7531  143.3212  169.4800 C.1     1  UNL1        0.1009
     18 C         138.7940  138.3930  161.3593 C.3     1  UNL1        0.0769
     19 C         137.7872  139.5037  161.3066 C.3     1  UNL1        0.0437
     20 C         138.0101  140.7563  162.1012 C.ar    1  UNL1       -0.0210
     21 C         137.5812  140.8199  163.5371 C.ar    1  UNL1       -0.0040
     22 C         137.8041  142.0725  164.3316 C.ar    1  UNL1        0.0059
     23 C         138.4558  143.2615  163.6902 C.ar    1  UNL1        0.0751
     24 C         138.8847  143.1980  162.2542 C.ar    1  UNL1        0.0272
     25 C         138.6618  141.9453  161.4597 C.ar    1  UNL1       -0.0047
     26 C         139.4975  144.5190  161.8946 C.3     1  UNL1        0.2356
     27 O         139.4473  145.3991  163.1082 O.3     1  UNL1       -0.4404
     28 C         138.8035  144.6219  164.2180 C.2     1  UNL1        0.3413
     29 O         138.5517  145.1180  165.6110 O.2     1  UNL1       -0.2449
@<TRIPOS>BOND
     1    16    17    3
     2    17     9    1
     3     9    10   ar
     4    10    11   ar
     5    11    12   ar
     6    12     8    1
     7     8     7    1
     8     7     1    1
     9     1     2    1
    10     2     3    1
    11     3     4    1
    12     4    18    1
    13    18    19    1
    14    19    20    1
    15    20    21   ar
    16    21    22   ar
    17    22    23   ar
    18    23    24   ar
    19    24    25   ar
    20    24    26    1
    21    26    27    1
    22    27    28    1
    23    28    29    2
    24     4     5    1
    25     5     6    1
    26    12    13   ar
    27    13    14   ar
    28    14    15    1
    29    14     9   ar
    30     6     1    1
    31    25    20   ar
    32    28    23    1
@<TRIPOS>MOLECULE
*****
 29 32 0 0 0
SMALL
GASTEIGER

@<TRIPOS>ATOM
      1 N         141.9523  144.7817  162.5921 N.3     1  UNL1       -0.2700
      2 C         142.6298  144.6873  163.9271 C.3     1  UNL1        0.0897
      3 C         143.8338  143.8090  164.0966 C.3     1  UNL1        0.0897
      4 N         144.3604  143.0251  162.9312 N.3     1  UNL1       -0.2700
      5 C         143.6830  143.1195  161.5963 C.3     1  UNL1        0.0897
      6 C         142.4789  143.9978  161.4267 C.3     1  UNL1        0.0897
      7 C         140.7482  145.6601  162.4225 C.3     1  UNL1        0.0769
      8 C         139.3940  145.1639  162.8345 C.3     1  UNL1        0.0437
      9 C         138.3066  140.8377  162.2420 C.ar    1  UNL1        0.0746
     10 C         138.4773  141.7376  161.0541 C.ar    1  UNL1        0.0105
     11 C         138.8397  143.1797  161.2516 C.ar    1  UNL1       -0.0035
     12 C         139.0315  143.7219  162.6370 C.ar    1  UNL1       -0.0203
     13 C         138.8609  142.8220  163.8249 C.ar    1  UNL1        0.0032
     14 C         138.4985  141.3798  163.6273 C.ar    1  UNL1        0.0439
     15 BR        138.3279  140.4799  164.8152 Br      1  UNL1       -0.0483
     16 N         137.5817  137.9535  161.8469 N.1     1  UNL1       -0.1908
     17 C         137.9442  139.3955  162.0444 C.1     1  UNL1        0.1009
     18 C         145.5645  142.1467  163.1009 C.3     1  UNL1        0.0769
     19 C         145.5103  140.9712  164.0309 C.3     1  UNL1        0.0437
     20 C         144.2760  140.1211  164.0941 C.ar    1  UNL1       -0.0210
     21 C         143.5043  140.0133  165.3758 C.ar    1  UNL1       -0.0040
     22 C         142.2701  139.1632  165.4389 C.ar    1  UNL1        0.0059
     23 C         141.8076  138.4208  164.2203 C.ar    1  UNL1        0.0751
     24 C         142.5794  138.5286  162.9386 C.ar    1  UNL1        0.0272
     25 C         143.8136  139.3787  162.8755 C.ar    1  UNL1       -0.0047
     26 C         141.8862  137.6874  161.9081 C.3     1  UNL1        0.2356
     27 O         140.6860  137.0598  162.5530 O.3     1  UNL1       -0.4404
     28 C         140.6374  137.5131  163.9820 C.2     1  UNL1        0.3413
     29 O         139.6008  137.1265  164.9949 O.2     1  UNL1       -0.2449
@<TRIPOS>BOND
     1    16    17    3
     2    17     9    1
     3     9    10   ar
     4    10    11   ar
     5    11    12   ar
     6    12     8    1
     7     8     7    1
     8     7     1    1
     9     1     2    1
    10     2     3    1
    11     3     4    1
    12     4    18    1
    13    18    19    1
    14    19    20    1
    15    20    21   ar
    16    21    22   ar
    17    22    23   ar
    18    23    24   ar
    19    24    25   ar
    20    24    26    1
    21    26    27    1
    22    27    28    1
    23    28    29    2
    24     4     5    1
    25     5     6    1
    26    12    13   ar
    27    13    14   ar
    28    14    15    1
    29    14     9   ar
    30     6     1    1
    31    25    20   ar
    32    28    23    1
@<TRIPOS>MOLECULE
*****
 29 32 0 0 0
SMALL
GASTEIGER

@<TRIPOS>ATOM
      1 N         141.3974  138.0114  162.1892 N.3     1  UNL1       -0.2700
      2 C         140.2569  138.9632  161.9815 C.3     1  UNL1        0.0897
      3 C         139.2370  139.1592  163.0638 C.3     1  UNL1        0.0897
      4 N         139.3576  138.4033  164.3538 N.3     1  UNL1       -0.2700
      5 C         140.4981  137.4514  164.5615 C.3     1  UNL1        0.0897
      6 C         141.5180  137.2555  163.4792 C.3     1  UNL1        0.0897
      7 C         142.4174  137.8154  161.1069 C.3     1  UNL1        0.0769
      8 C         143.8070  138.3530  161.2796 C.3     1  UNL1        0.0437
      9 C         144.5514  141.8133  164.0585 C.ar    1  UNL1        0.0746
     10 C         144.7467  140.4071  164.5427 C.ar    1  UNL1        0.0105
     11 C         144.4985  139.2537  163.6165 C.ar    1  UNL1       -0.0035
     12 C         144.0551  139.5064  162.2059 C.ar    1  UNL1       -0.0203
     13 C         143.8598  140.9126  161.7217 C.ar    1  UNL1        0.0032
     14 C         144.1080  142.0661  162.6481 C.ar    1  UNL1        0.0439
     15 BR        143.9127  143.4723  162.1639 Br      1  UNL1       -0.0483
     16 N         145.0477  144.1201  165.9112 N.1     1  UNL1       -0.1908
     17 C         144.7995  142.9667  164.9849 C.1     1  UNL1        0.1009
     18 C         138.3376  138.5993  165.4361 C.3     1  UNL1        0.0769
     19 C         138.2496  139.9129  166.1547 C.3     1  UNL1        0.0437
     20 C         139.4438  140.4483  166.8878 C.ar    1  UNL1       -0.0210
     21 C         140.4103  141.3553  166.1856 C.ar    1  UNL1       -0.0040
     22 C         141.6044  141.8906  166.9187 C.ar    1  UNL1        0.0059
     23 C         141.8320  141.5190  168.3540 C.ar    1  UNL1        0.0751
     24 C         140.8654  140.6121  169.0563 C.ar    1  UNL1        0.0272
     25 C         139.6713  140.0767  168.3231 C.ar    1  UNL1       -0.0047
     26 C         141.3473  140.4218  170.4639 C.3     1  UNL1        0.2356
     27 O         142.6118  141.2111  170.6317 O.3     1  UNL1       -0.4404
     28 C         142.9113  141.8893  169.3277 C.2     1  UNL1        0.3413
     29 O         144.0842  142.7811  169.0467 O.2     1  UNL1       -0.2449
@<TRIPOS>BOND
     1    16    17    3
     2    17     9    1
     3     9    10   ar
     4    10    11   ar
     5    11    12   ar
     6    12     8    1
     7     8     7    1
     8     7     1    1
     9     1     2    1
    10     2     3    1
    11     3     4    1
    12     4    18    1
    13    18    19    1
    14    19    20    1
    15    20    21   ar
    16    21    22   ar
    17    22    23   ar
    18    23    24   ar
    19    24    25   ar
    20    24    26    1
    21    26    27    1
    22    27    28    1
    23    28    29    2
    24     4     5    1
    25     5     6    1
    26    12    13   ar
    27    13    14   ar
    28    14    15    1
    29    14     9   ar
    30     6     1    1
    31    25    20   ar
    32    28    23    1
@<TRIPOS>MOLECULE
*****
 29 32 0 0 0
SMALL
GASTEIGER

@<TRIPOS>ATOM
      1 N         144.0336  139.5049  164.2532 N.3     1  UNL1       -0.2700
      2 C         143.3901  139.5350  165.6078 C.3     1  UNL1        0.0897
      3 C         142.0295  138.9352  165.8053 C.3     1  UNL1        0.0897
      4 N         141.3125  138.3051  164.6482 N.3     1  UNL1       -0.2700
      5 C         141.9560  138.2750  163.2936 C.3     1  UNL1        0.0897
      6 C         143.3165  138.8748  163.0961 C.3     1  UNL1        0.0897
      7 C         145.3942  140.1047  164.0557 C.3     1  UNL1        0.0769
      8 C         145.5446  141.5896  163.9057 C.3     1  UNL1        0.0437
      9 C         142.5592  143.9193  161.4747 C.ar    1  UNL1        0.0746
     10 C         143.3663  142.8318  160.8297 C.ar    1  UNL1        0.0105
     11 C         144.3614  142.0552  161.6400 C.ar    1  UNL1       -0.0035
     12 C         144.5495  142.3661  163.0954 C.ar    1  UNL1       -0.0203
     13 C         143.7424  143.4536  163.7404 C.ar    1  UNL1        0.0032
     14 C         142.7472  144.2302  162.9300 C.ar    1  UNL1        0.0439
     15 BR        141.9402  145.3177  163.5750 Br      1  UNL1       -0.0483
     16 N         140.5689  145.4723  159.8540 N.1     1  UNL1       -0.1908
     17 C         141.5640  144.6958  160.6643 C.1     1  UNL1        0.1009
     18 C         139.9519  137.7052  164.8457 C.3     1  UNL1        0.0769
     19 C         138.8272  138.5515  165.3643 C.3     1  UNL1        0.0437
     20 C         138.6464  139.9515  164.8570 C.ar    1  UNL1       -0.0210
     21 C         138.0346  140.1873  163.5079 C.ar    1  UNL1       -0.0040
     22 C         137.8539  141.5872  163.0007 C.ar    1  UNL1        0.0059
     23 C         138.2849  142.7515  163.8426 C.ar    1  UNL1        0.0751
     24 C         138.8966  142.5158  165.1917 C.ar    1  UNL1        0.0272
     25 C         139.0774  141.1158  165.6989 C.ar    1  UNL1       -0.0047
     26 C         139.2230  143.8509  165.7923 C.3     1  UNL1        0.2356
     27 O         138.8130  144.9119  164.8144 O.3     1  UNL1       -0.4404
     28 C         138.2332  144.2324  163.6093 C.2     1  UNL1        0.3413
     29 O         137.6960  144.9141  162.3859 O.2     1  UNL1       -0.2449
@<TRIPOS>BOND
     1    16    17    3
     2    17     9    1
     3     9    10   ar
     4    10    11   ar
     5    11    12   ar
     6    12     8    1
     7     8     7    1
     8     7     1    1
     9     1     2    1
    10     2     3    1
    11     3     4    1
    12     4    18    1
    13    18    19    1
    14    19    20    1
    15    20    21   ar
    16    21    22   ar
    17    22    23   ar
    18    23    24   ar
    19    24    25   ar
    20    24    26    1
    21    26    27    1
    22    27    28    1
    23    28    29    2
    24     4     5    1
    25     5     6    1
    26    12    13   ar
    27    13    14   ar
    28    14    15    1
    29    14     9   ar
    30     6     1    1
    31    25    20   ar
    32    28    23    1
@<TRIPOS>MOLECULE
*****
 29 32 0 0 0
SMALL
GASTEIGER

@<TRIPOS>ATOM
      1 N         138.3627  140.6529  164.3439 N.3     1  UNL1       -0.2700
      2 C         139.1311  140.0730  163.1936 C.3     1  UNL1        0.0897
      3 C         139.4679  140.9292  162.0090 C.3     1  UNL1        0.0897
      4 N         139.0363  142.3654  161.9746 N.3     1  UNL1       -0.2700
      5 C         138.2679  142.9453  163.1249 C.3     1  UNL1        0.0897
      6 C         137.9311  142.0891  164.3095 C.3     1  UNL1        0.0897
      7 C         138.0259  139.7967  165.5286 C.3     1  UNL1        0.0769
      8 C         139.1138  139.0698  166.2621 C.3     1  UNL1        0.0437
      9 C         142.3193  141.3884  168.4066 C.ar    1  UNL1        0.0746
     10 C         142.6899  140.4359  167.3087 C.ar    1  UNL1        0.0105
     11 C         141.6214  139.6631  166.5939 C.ar    1  UNL1       -0.0035
     12 C         140.1823  139.8427  166.9770 C.ar    1  UNL1       -0.0203
     13 C         139.8117  140.7951  168.0749 C.ar    1  UNL1        0.0032
     14 C         140.8802  141.5680  168.7897 C.ar    1  UNL1        0.0439
     15 BR        140.5096  142.5205  169.8877 Br      1  UNL1       -0.0483
     16 N         144.4564  142.9341  169.8363 N.1     1  UNL1       -0.1908
     17 C         143.3878  142.1613  169.1215 C.1     1  UNL1        0.1009
     18 C         139.3731  143.2216  160.7899 C.3     1  UNL1        0.0769
     19 C         140.4343  144.2755  160.9037 C.3     1  UNL1        0.0437
     20 C         141.5065  144.1509  161.9453 C.ar    1  UNL1       -0.0210
     21 C         141.6059  145.1667  163.0445 C.ar    1  UNL1       -0.0040
     22 C         142.6780  145.0420  164.0861 C.ar    1  UNL1        0.0059
     23 C         143.6507  143.9016  164.0285 C.ar    1  UNL1        0.0751
     24 C         143.5513  142.8859  162.9293 C.ar    1  UNL1        0.0272
     25 C         142.4792  143.0105  161.8877 C.ar    1  UNL1       -0.0047
     26 C         144.6434  141.8774  163.1299 C.3     1  UNL1        0.2356
     27 O         145.4178  142.2699  164.3532 O.3     1  UNL1       -0.4404
     28 C         144.8043  143.5209  164.9086 C.2     1  UNL1        0.3413
     29 O         145.2637  144.2613  166.1296 O.2     1  UNL1       -0.2449
@<TRIPOS>BOND
     1    16    17    3
     2    17     9    1
     3     9    10   ar
     4    10    11   ar
     5    11    12   ar
     6    12     8    1
     7     8     7    1
     8     7     1    1
     9     1     2    1
    10     2     3    1
    11     3     4    1
    12     4    18    1
    13    18    19    1
    14    19    20    1
    15    20    21   ar
    16    21    22   ar
    17    22    23   ar
    18    23    24   ar
    19    24    25   ar
    20    24    26    1
    21    26    27    1
    22    27    28    1
    23    28    29    2
    24     4     5    1
    25     5     6    1
    26    12    13   ar
    27    13    14   ar
    28    14    15    1
    29    14     9   ar
    30     6     1    1
    31    25    20   ar
    32    28    23    1
@<TRIPOS>MOLECULE
*****
 29 32 0 0 0
SMALL
GASTEIGER

@<TRIPOS>ATOM
      1 N         138.1281  140.9854  161.0646 N.3     1  UNL1       -0.2700
      2 C         137.5618  140.6559  162.4140 C.3     1  UNL1        0.0897
      3 C         137.4247  141.7296  163.4523 C.3     1  UNL1        0.0897
      4 N         137.8538  143.1329  163.1414 N.3     1  UNL1       -0.2700
      5 C         138.4200  143.4624  161.7921 C.3     1  UNL1        0.0897
      6 C         138.5572  142.3887  160.7537 C.3     1  UNL1        0.0897
      7 C         138.2652  139.9117  160.0262 C.3     1  UNL1        0.0769
      8 C         139.5590  139.1661  159.8845 C.3     1  UNL1        0.0437
      9 C         142.3574  138.8296  163.3925 C.ar    1  UNL1        0.0746
     10 C         142.6335  139.8261  162.3057 C.ar    1  UNL1        0.0105
     11 C         141.7007  139.9382  161.1365 C.ar    1  UNL1       -0.0035
     12 C         140.4918  139.0540  161.0538 C.ar    1  UNL1       -0.0203
     13 C         140.2158  138.0576  162.1406 C.ar    1  UNL1        0.0032
     14 C         141.1486  137.9454  163.3099 C.ar    1  UNL1        0.0439
     15 BR        140.8726  136.9490  164.3966 Br      1  UNL1       -0.0483
     16 N         144.2231  138.6054  165.7311 N.1     1  UNL1       -0.1908
     17 C         143.2903  138.7175  164.5618 C.1     1  UNL1        0.1009
     18 C         137.7167  144.2066  164.1799 C.3     1  UNL1        0.0769
     19 C         138.8076  144.4196  165.1871 C.3     1  UNL1        0.0437
     20 C         140.1967  143.9300  164.9030 C.ar    1  UNL1       -0.0210
     21 C         140.7080  142.6914  165.5773 C.ar    1  UNL1       -0.0040
     22 C         142.0970  142.2019  165.2932 C.ar    1  UNL1        0.0059
     23 C         142.9749  142.9508  164.3349 C.ar    1  UNL1        0.0751
     24 C         142.4637  144.1894  163.6606 C.ar    1  UNL1        0.0272
     25 C         141.0746  144.6789  163.9447 C.ar    1  UNL1       -0.0047
     26 C         143.5505  144.7145  162.7700 C.3     1  UNL1        0.2356
     27 O         144.7334  143.8005  162.8939 O.3     1  UNL1       -0.4404
     28 C         144.3777  142.7105  163.8610 C.2     1  UNL1        0.3413
     29 O         145.2684  141.5788  164.2806 O.2     1  UNL1       -0.2449
@<TRIPOS>BOND
     1    16    17    3
     2    17     9    1
     3     9    10   ar
     4    10    11   ar
     5    11    12   ar
     6    12     8    1
     7     8     7    1
     8     7     1    1
     9     1     2    1
    10     2     3    1
    11     3     4    1
    12     4    18    1
    13    18    19    1
    14    19    20    1
    15    20    21   ar
    16    21    22   ar
    17    22    23   ar
    18    23    24   ar
    19    24    25   ar
    20    24    26    1
    21    26    27    1
    22    27    28    1
    23    28    29    2
    24     4     5    1
    25     5     6    1
    26    12    13   ar
    27    13    14   ar
    28    14    15    1
    29    14     9   ar
    30     6     1    1
    31    25    20   ar
    32    28    23    1
