@<TRIPOS>MOLECULE
*****
 36 39 0 0 0
SMALL
GASTEIGER

@<TRIPOS>ATOM
      1 C         139.0756  138.4038  164.0132 C.ar    1  UNL1        0.1534
      2 C         138.5600  138.2069  165.4080 C.ar    1  UNL1        0.0591
      3 C         138.9416  139.1711  166.4918 C.ar    1  UNL1        0.1072
      4 N         138.4259  138.9742  167.8866 N.ar    1  UNL1       -0.1477
      5 N         138.8076  139.9384  168.9704 N.ar    1  UNL1       -0.1421
      6 C         139.7049  141.0995  168.6594 C.ar    1  UNL1        0.1690
      7 C         140.2206  141.2964  167.2647 C.ar    1  UNL1        0.0740
      8 C         139.8389  140.3322  166.1809 C.ar    1  UNL1        0.0359
      9 C         140.3546  140.5291  164.7862 C.ar    1  UNL1        0.0204
     10 C         139.9729  139.5649  163.7023 C.ar    1  UNL1        0.0825
     11 N         140.4886  139.7618  162.3076 N.pl3   1  UNL1       -0.3024
     12 C         141.4648  138.7839  161.7238 C.3     1  UNL1        0.1065
     13 C         141.9805  138.9808  160.3291 C.3     1  UNL1        0.0741
     14 C         142.9567  138.0029  159.7454 C.3     1  UNL1        0.0189
     15 N         141.5200  140.1557  159.5181 N.3     1  UNL1       -0.2969
     16 C         140.5438  141.1336  160.1018 C.3     1  UNL1        0.0741
     17 C         140.0834  142.3084  159.2908 C.3     1  UNL1        0.0189
     18 C         140.0281  140.9367  161.4966 C.3     1  UNL1        0.1065
     19 H         141.0904  139.7797  158.6728 H       1  UNL1        0.1233
     20 C         140.0866  142.0637  169.7433 C.2     1  UNL1        0.2635
     21 N         140.4480  141.5543  171.1071 N.am    1  UNL1       -0.3240
     22 O         140.1067  143.5372  169.4633 O.2     1  UNL1       -0.2686
     23 H         140.4348  140.5872  171.2908 H       1  UNL1        0.1453
     24 H         140.6985  142.1872  171.8185 H       1  UNL1        0.1453
     25 C         137.7903  137.8813  161.8167 C.3     1  UNL1        0.2525
     26 O         138.6940  137.4396  162.9294 O.3     1  UNL1       -0.4701
     27 N         141.1179  142.4575  166.9538 N.pl3   1  UNL1       -0.3094
     28 H         141.8924  142.6493  167.5305 H       1  UNL1        0.1523
     29 C         140.8351  143.3264  165.7642 C.ar    1  UNL1        0.0761
     30 C         139.4753  143.9338  165.5854 C.ar    1  UNL1        0.0166
     31 C         139.1926  144.8027  164.3958 C.ar    1  UNL1       -0.0028
     32 C         140.2697  145.0642  163.3850 C.ar    1  UNL1       -0.0195
     33 C         139.9869  145.9330  162.1955 C.3     1  UNL1        0.0311
     34 C         141.6294  144.4567  163.5638 C.ar    1  UNL1        0.0267
     35 C         141.9122  143.5878  164.7535 C.ar    1  UNL1        0.1531
     36 F         143.2720  142.9804  164.9323 F       1  UNL1       -0.2029
@<TRIPOS>BOND
     1    25    26    1
     2    26     1    1
     3     1     2   ar
     4     2     3   ar
     5     3     4   ar
     6     4     5   ar
     7     5     6   ar
     8     6    20    1
     9    20    21   am
    10    20    22    2
    11     6     7   ar
    12     7    27    1
    13    27    29    1
    14    29    30   ar
    15    30    31   ar
    16    31    32   ar
    17    32    33    1
    18    32    34   ar
    19    34    35   ar
    20    35    36    1
    21     7     8   ar
    22     8     9   ar
    23     9    10   ar
    24    10    11    1
    25    11    12    1
    26    12    13    1
    27    13    14    1
    28    13    15    1
    29    15    16    1
    30    16    17    1
    31    16    18    1
    32    10     1   ar
    33    18    11    1
    34     8     3   ar
    35    35    29   ar
    36    21    23    1
    37    21    24    1
    38    27    28    1
    39    15    19    1
@<TRIPOS>MOLECULE
*****
 36 39 0 0 0
SMALL
GASTEIGER

@<TRIPOS>ATOM
      1 C         139.0844  139.0420  166.4615 C.ar    1  UNL1        0.1534
      2 C         138.6117  138.3767  165.2030 C.ar    1  UNL1        0.0591
      3 C         139.5006  138.3388  163.9953 C.ar    1  UNL1        0.1072
      4 N         139.0278  137.6734  162.7367 N.ar    1  UNL1       -0.1477
      5 N         139.9166  137.6355  161.5290 N.ar    1  UNL1       -0.1421
      6 C         141.2782  138.2629  161.5799 C.ar    1  UNL1        0.1690
      7 C         141.7509  138.9283  162.8384 C.ar    1  UNL1        0.0740
      8 C         140.8621  138.9662  164.0461 C.ar    1  UNL1        0.0359
      9 C         141.3348  139.6315  165.3046 C.ar    1  UNL1        0.0204
     10 C         140.4459  139.6694  166.5123 C.ar    1  UNL1        0.0825
     11 N         140.9187  140.3348  167.7709 N.pl3   1  UNL1       -0.3024
     12 C         141.8742  139.6230  168.6821 C.3     1  UNL1        0.1065
     13 C         142.3469  140.2883  169.9406 C.3     1  UNL1        0.0741
     14 C         143.3024  139.5765  170.8519 C.3     1  UNL1        0.0189
     15 N         141.8642  141.6654  170.2879 N.3     1  UNL1       -0.2969
     16 C         140.9087  142.3772  169.3766 C.3     1  UNL1        0.0741
     17 C         140.4260  143.7543  169.7239 C.3     1  UNL1        0.0189
     18 C         140.4360  141.7118  168.1181 C.3     1  UNL1        0.1065
     19 H         142.6918  142.2564  170.3665 H       1  UNL1        0.1233
     20 C         142.1670  138.2250  160.3722 C.2     1  UNL1        0.2635
     21 N         141.5924  138.4778  159.0098 N.am    1  UNL1       -0.3240
     22 O         143.6304  137.9343  160.5268 O.2     1  UNL1       -0.2686
     23 H         140.6319  138.6686  158.9083 H       1  UNL1        0.1453
     24 H         142.1757  138.4529  158.2171 H       1  UNL1        0.1453
     25 C         137.0505  138.1185  167.7881 C.3     1  UNL1        0.2525
     26 O         138.1956  139.0799  167.6692 O.3     1  UNL1       -0.4701
     27 N         143.1124  139.5556  162.8892 N.pl3   1  UNL1       -0.3094
     28 H         143.9147  139.0028  162.7482 H       1  UNL1        0.1523
     29 C         143.2515  141.0254  163.1548 C.ar    1  UNL1        0.0761
     30 C         142.2593  141.9895  162.5751 C.ar    1  UNL1        0.0166
     31 C         142.3984  143.4592  162.8407 C.ar    1  UNL1       -0.0028
     32 C         143.5297  143.9649  163.6860 C.ar    1  UNL1       -0.0195
     33 C         143.6688  145.4346  163.9516 C.3     1  UNL1        0.0311
     34 C         144.5219  143.0008  164.2657 C.ar    1  UNL1        0.0267
     35 C         144.3828  141.5310  164.0001 C.ar    1  UNL1        0.1531
     36 F         145.3750  140.5669  164.5797 F       1  UNL1       -0.2029
@<TRIPOS>BOND
     1    25    26    1
     2    26     1    1
     3     1     2   ar
     4     2     3   ar
     5     3     4   ar
     6     4     5   ar
     7     5     6   ar
     8     6    20    1
     9    20    21   am
    10    20    22    2
    11     6     7   ar
    12     7    27    1
    13    27    29    1
    14    29    30   ar
    15    30    31   ar
    16    31    32   ar
    17    32    33    1
    18    32    34   ar
    19    34    35   ar
    20    35    36    1
    21     7     8   ar
    22     8     9   ar
    23     9    10   ar
    24    10    11    1
    25    11    12    1
    26    12    13    1
    27    13    14    1
    28    13    15    1
    29    15    16    1
    30    16    17    1
    31    16    18    1
    32    10     1   ar
    33    18    11    1
    34     8     3   ar
    35    35    29   ar
    36    21    23    1
    37    21    24    1
    38    27    28    1
    39    15    19    1
@<TRIPOS>MOLECULE
*****
 36 39 0 0 0
SMALL
GASTEIGER

@<TRIPOS>ATOM
      1 C         139.0749  139.0458  166.4899 C.ar    1  UNL1        0.1534
      2 C         138.5967  138.3790  165.2343 C.ar    1  UNL1        0.0591
      3 C         139.4808  138.3383  164.0232 C.ar    1  UNL1        0.1072
      4 N         139.0025  137.6715  162.7675 N.ar    1  UNL1       -0.1477
      5 N         139.8866  137.6309  161.5564 N.ar    1  UNL1       -0.1421
      6 C         141.2490  138.2570  161.6010 C.ar    1  UNL1        0.1690
      7 C         141.7272  138.9238  162.8567 C.ar    1  UNL1        0.0740
      8 C         140.8431  138.9644  164.0678 C.ar    1  UNL1        0.0359
      9 C         141.3213  139.6312  165.3234 C.ar    1  UNL1        0.0204
     10 C         140.4372  139.6719  166.5345 C.ar    1  UNL1        0.0825
     11 N         140.9155  140.3387  167.7902 N.pl3   1  UNL1       -0.3024
     12 C         140.4343  141.7162  168.1379 C.3     1  UNL1        0.1065
     13 C         140.9125  142.3830  169.3935 C.3     1  UNL1        0.0741
     14 C         140.4313  143.7605  169.7412 C.3     1  UNL1        0.0189
     15 N         141.8720  141.6723  170.3015 N.3     1  UNL1       -0.2969
     16 C         142.3533  140.2948  169.9538 C.3     1  UNL1        0.0741
     17 C         143.3127  139.5841  170.8617 C.3     1  UNL1        0.0189
     18 C         141.8750  139.6280  168.6981 C.3     1  UNL1        0.1065
     19 H         141.4196  141.6047  171.2132 H       1  UNL1        0.1233
     20 C         142.1331  138.2164  160.3900 C.2     1  UNL1        0.2635
     21 N         141.6283  138.7328  159.0752 N.am    1  UNL1       -0.3240
     22 O         143.5219  137.6593  160.4936 O.2     1  UNL1       -0.2686
     23 H         140.7167  139.0984  159.0072 H       1  UNL1        0.1453
     24 H         142.2085  138.7061  158.2803 H       1  UNL1        0.1453
     25 C         137.0401  138.1319  167.8219 C.3     1  UNL1        0.2525
     26 O         138.1908  139.0864  167.7010 O.3     1  UNL1       -0.4701
     27 N         143.0895  139.5499  162.9012 N.pl3   1  UNL1       -0.3094
     28 H         143.8909  138.9954  162.7611 H       1  UNL1        0.1523
     29 C         143.2309  141.0208  163.1594 C.ar    1  UNL1        0.0761
     30 C         142.2373  141.9830  162.5789 C.ar    1  UNL1        0.0166
     31 C         142.3787  143.4538  162.8370 C.ar    1  UNL1       -0.0028
     32 C         143.5136  143.9625  163.6755 C.ar    1  UNL1       -0.0195
     33 C         143.6550  145.4333  163.9336 C.3     1  UNL1        0.0311
     34 C         144.5072  143.0003  164.2560 C.ar    1  UNL1        0.0267
     35 C         144.3658  141.5294  163.9979 C.ar    1  UNL1        0.1531
     36 F         145.3594  140.5672  164.5784 F       1  UNL1       -0.2029
@<TRIPOS>BOND
     1    25    26    1
     2    26     1    1
     3     1     2   ar
     4     2     3   ar
     5     3     4   ar
     6     4     5   ar
     7     5     6   ar
     8     6    20    1
     9    20    21   am
    10    20    22    2
    11     6     7   ar
    12     7    27    1
    13    27    29    1
    14    29    30   ar
    15    30    31   ar
    16    31    32   ar
    17    32    33    1
    18    32    34   ar
    19    34    35   ar
    20    35    36    1
    21     7     8   ar
    22     8     9   ar
    23     9    10   ar
    24    10    11    1
    25    11    12    1
    26    12    13    1
    27    13    14    1
    28    13    15    1
    29    15    16    1
    30    16    17    1
    31    16    18    1
    32    10     1   ar
    33    18    11    1
    34     8     3   ar
    35    35    29   ar
    36    21    23    1
    37    21    24    1
    38    27    28    1
    39    15    19    1
@<TRIPOS>MOLECULE
*****
 36 39 0 0 0
SMALL
GASTEIGER

@<TRIPOS>ATOM
      1 C         139.2075  138.4933  164.5186 C.ar    1  UNL1        0.1534
      2 C         138.4137  138.3528  165.7835 C.ar    1  UNL1        0.0591
      3 C         138.7853  139.1551  166.9952 C.ar    1  UNL1        0.1072
      4 N         137.9914  139.0146  168.2602 N.ar    1  UNL1       -0.1477
      5 N         138.3630  139.8169  169.4719 N.ar    1  UNL1       -0.1421
      6 C         139.5286  140.7597  169.4186 C.ar    1  UNL1        0.1690
      7 C         140.3224  140.9002  168.1537 C.ar    1  UNL1        0.0740
      8 C         139.9508  140.0979  166.9420 C.ar    1  UNL1        0.0359
      9 C         140.7446  140.2383  165.6771 C.ar    1  UNL1        0.0204
     10 C         140.3730  139.4360  164.4654 C.ar    1  UNL1        0.0825
     11 N         141.1669  139.5765  163.2004 N.pl3   1  UNL1       -0.3024
     12 C         140.9592  140.7680  162.3131 C.3     1  UNL1        0.1065
     13 C         141.7530  140.9085  161.0482 C.3     1  UNL1        0.0741
     14 C         141.5454  142.0999  160.1608 C.3     1  UNL1        0.0189
     15 N         142.7546  139.8576  160.6706 N.3     1  UNL1       -0.2969
     16 C         142.9623  138.6661  161.5579 C.3     1  UNL1        0.0741
     17 C         143.9637  137.6152  161.1804 C.3     1  UNL1        0.0189
     18 C         142.1684  138.5256  162.8229 C.3     1  UNL1        0.1065
     19 H         143.6571  140.3261  160.5907 H       1  UNL1        0.1233
     20 C         139.9002  141.5620  170.6303 C.2     1  UNL1        0.2635
     21 N         139.4602  142.9913  170.7474 N.am    1  UNL1       -0.3240
     22 O         140.7118  140.9351  171.7250 O.2     1  UNL1       -0.2686
     23 H         138.9275  143.4028  170.0289 H       1  UNL1        0.1453
     24 H         139.7041  143.5179  171.5426 H       1  UNL1        0.1453
     25 C         138.0563  138.3286  162.1953 C.3     1  UNL1        0.2525
     26 O         138.8359  137.6910  163.3069 O.3     1  UNL1       -0.4701
     27 N         141.4879  141.8429  168.1005 N.pl3   1  UNL1       -0.3094
     28 H         141.9858  142.0569  168.9224 H       1  UNL1        0.1523
     29 C         141.8946  142.4597  166.7950 C.ar    1  UNL1        0.0761
     30 C         143.2956  142.2863  166.2879 C.ar    1  UNL1        0.0166
     31 C         143.7024  142.9030  164.9825 C.ar    1  UNL1       -0.0028
     32 C         142.7082  143.6932  164.1841 C.ar    1  UNL1       -0.0195
     33 C         143.1150  144.3100  162.8787 C.3     1  UNL1        0.0311
     34 C         141.3072  143.8667  164.6913 C.ar    1  UNL1        0.0267
     35 C         140.9005  143.2499  165.9968 C.ar    1  UNL1        0.1531
     36 F         139.4995  143.4233  166.5039 F       1  UNL1       -0.2029
@<TRIPOS>BOND
     1    25    26    1
     2    26     1    1
     3     1     2   ar
     4     2     3   ar
     5     3     4   ar
     6     4     5   ar
     7     5     6   ar
     8     6    20    1
     9    20    21   am
    10    20    22    2
    11     6     7   ar
    12     7    27    1
    13    27    29    1
    14    29    30   ar
    15    30    31   ar
    16    31    32   ar
    17    32    33    1
    18    32    34   ar
    19    34    35   ar
    20    35    36    1
    21     7     8   ar
    22     8     9   ar
    23     9    10   ar
    24    10    11    1
    25    11    12    1
    26    12    13    1
    27    13    14    1
    28    13    15    1
    29    15    16    1
    30    16    17    1
    31    16    18    1
    32    10     1   ar
    33    18    11    1
    34     8     3   ar
    35    35    29   ar
    36    21    23    1
    37    21    24    1
    38    27    28    1
    39    15    19    1
@<TRIPOS>MOLECULE
*****
 36 39 0 0 0
SMALL
GASTEIGER

@<TRIPOS>ATOM
      1 C         138.4263  140.5995  161.7592 C.ar    1  UNL1        0.1534
      2 C         138.1217  141.0382  160.3576 C.ar    1  UNL1        0.0591
      3 C         138.8444  142.2115  159.7651 C.ar    1  UNL1        0.1072
      4 N         138.5397  142.6502  158.3634 N.ar    1  UNL1       -0.1477
      5 N         139.2625  143.8235  157.7709 N.ar    1  UNL1       -0.1421
      6 C         140.2900  144.5580  158.5801 C.ar    1  UNL1        0.1690
      7 C         140.5946  144.1193  159.9818 C.ar    1  UNL1        0.0740
      8 C         139.8719  142.9460  160.5742 C.ar    1  UNL1        0.0359
      9 C         140.1766  142.5073  161.9759 C.ar    1  UNL1        0.0204
     10 C         139.4538  141.3340  162.5684 C.ar    1  UNL1        0.0825
     11 N         139.7585  140.8953  163.9701 N.pl3   1  UNL1       -0.3024
     12 C         141.0832  141.2296  164.5893 C.3     1  UNL1        0.1065
     13 C         141.3880  140.7909  165.9909 C.3     1  UNL1        0.0741
     14 C         142.7126  141.1252  166.6102 C.3     1  UNL1        0.0189
     15 N         140.3680  140.0178  166.7734 N.3     1  UNL1       -0.2969
     16 C         139.0433  139.6835  166.1542 C.3     1  UNL1        0.0741
     17 C         138.0234  138.9105  166.9366 C.3     1  UNL1        0.0189
     18 C         138.7386  140.1223  164.7525 C.3     1  UNL1        0.1065
     19 H         140.1713  140.5585  167.6156 H       1  UNL1        0.1233
     20 C         141.0127  145.7313  157.9876 C.2     1  UNL1        0.2635
     21 N         140.2613  146.7408  157.1712 N.am    1  UNL1       -0.3240
     22 O         142.4868  145.8951  158.2115 O.2     1  UNL1       -0.2686
     23 H         139.2938  146.6332  157.0243 H       1  UNL1        0.1453
     24 H         140.7357  147.5108  156.7824 H       1  UNL1        0.1453
     25 C         137.9881  138.0404  161.8533 C.3     1  UNL1        0.2525
     26 O         137.7036  139.4262  162.3517 O.3     1  UNL1       -0.4701
     27 N         141.6221  144.8538  160.7909 N.pl3   1  UNL1       -0.3094
     28 H         141.5979  145.8367  160.8419 H       1  UNL1        0.1523
     29 C         142.6864  144.0908  161.5225 C.ar    1  UNL1        0.0761
     30 C         143.5069  143.0656  160.7974 C.ar    1  UNL1        0.0166
     31 C         144.5712  142.3026  161.5289 C.ar    1  UNL1       -0.0028
     32 C         144.8150  142.5648  162.9856 C.ar    1  UNL1       -0.0195
     33 C         145.8792  141.8018  163.7171 C.3     1  UNL1        0.0311
     34 C         143.9945  143.5899  163.7107 C.ar    1  UNL1        0.0267
     35 C         142.9302  144.3530  162.9791 C.ar    1  UNL1        0.1531
     36 F         142.1097  145.3781  163.7042 F       1  UNL1       -0.2029
@<TRIPOS>BOND
     1    25    26    1
     2    26     1    1
     3     1     2   ar
     4     2     3   ar
     5     3     4   ar
     6     4     5   ar
     7     5     6   ar
     8     6    20    1
     9    20    21   am
    10    20    22    2
    11     6     7   ar
    12     7    27    1
    13    27    29    1
    14    29    30   ar
    15    30    31   ar
    16    31    32   ar
    17    32    33    1
    18    32    34   ar
    19    34    35   ar
    20    35    36    1
    21     7     8   ar
    22     8     9   ar
    23     9    10   ar
    24    10    11    1
    25    11    12    1
    26    12    13    1
    27    13    14    1
    28    13    15    1
    29    15    16    1
    30    16    17    1
    31    16    18    1
    32    10     1   ar
    33    18    11    1
    34     8     3   ar
    35    35    29   ar
    36    21    23    1
    37    21    24    1
    38    27    28    1
    39    15    19    1
@<TRIPOS>MOLECULE
*****
 36 39 0 0 0
SMALL
GASTEIGER

@<TRIPOS>ATOM
      1 C         138.0441  140.6063  161.8301 C.ar    1  UNL1        0.1534
      2 C         137.9052  140.4585  160.3439 C.ar    1  UNL1        0.0591
      3 C         138.9704  139.7536  159.5575 C.ar    1  UNL1        0.1072
      4 N         138.8314  139.6058  158.0712 N.ar    1  UNL1       -0.1477
      5 N         139.8966  138.9009  157.2848 N.ar    1  UNL1       -0.1421
      6 C         141.1007  138.3438  157.9846 C.ar    1  UNL1        0.1690
      7 C         141.2397  138.4916  159.4708 C.ar    1  UNL1        0.0740
      8 C         140.1745  139.1965  160.2572 C.ar    1  UNL1        0.0359
      9 C         140.3134  139.3443  161.7434 C.ar    1  UNL1        0.0204
     10 C         139.2482  140.0493  162.5298 C.ar    1  UNL1        0.0825
     11 N         139.3872  140.1971  164.0161 N.pl3   1  UNL1       -0.3024
     12 C         140.3963  141.1507  164.5838 C.3     1  UNL1        0.1065
     13 C         140.5353  141.2985  166.0700 C.3     1  UNL1        0.0741
     14 C         141.5445  142.2521  166.6377 C.3     1  UNL1        0.0189
     15 N         139.6652  140.4927  166.9886 N.3     1  UNL1       -0.2969
     16 C         138.6561  139.5391  166.4208 C.3     1  UNL1        0.0741
     17 C         137.7860  138.7334  167.3393 C.3     1  UNL1        0.0189
     18 C         138.5171  139.3913  164.9346 C.3     1  UNL1        0.1065
     19 H         139.1499  141.1581  167.5649 H       1  UNL1        0.1233
     20 C         142.1659  137.6389  157.1982 C.2     1  UNL1        0.2635
     21 N         141.8261  136.4085  156.4102 N.am    1  UNL1       -0.3240
     22 O         143.5709  138.1642  157.1997 O.2     1  UNL1       -0.2686
     23 H         140.9040  136.0637  156.4091 H       1  UNL1        0.1453
     24 H         142.5252  135.9459  155.8940 H       1  UNL1        0.1453
     25 C         137.2769  142.6278  163.2705 C.3     1  UNL1        0.2525
     26 O         136.9789  141.3112  162.6165 O.3     1  UNL1       -0.4701
     27 N         142.4438  137.9345  160.1706 N.pl3   1  UNL1       -0.3094
     28 H         142.7038  136.9954  160.0306 H       1  UNL1        0.1523
     29 C         143.2518  138.8084  161.0836 C.ar    1  UNL1        0.0761
     30 C         143.5552  138.3552  162.4810 C.ar    1  UNL1        0.0166
     31 C         144.3631  139.2290  163.3940 C.ar    1  UNL1       -0.0028
     32 C         144.8677  140.5560  162.9097 C.ar    1  UNL1       -0.0195
     33 C         145.6757  141.4298  163.8227 C.3     1  UNL1        0.0311
     34 C         144.5643  141.0092  161.5123 C.ar    1  UNL1        0.0267
     35 C         143.7563  140.1353  160.5993 C.ar    1  UNL1        0.1531
     36 F         143.4529  140.5885  159.2019 F       1  UNL1       -0.2029
@<TRIPOS>BOND
     1    25    26    1
     2    26     1    1
     3     1     2   ar
     4     2     3   ar
     5     3     4   ar
     6     4     5   ar
     7     5     6   ar
     8     6    20    1
     9    20    21   am
    10    20    22    2
    11     6     7   ar
    12     7    27    1
    13    27    29    1
    14    29    30   ar
    15    30    31   ar
    16    31    32   ar
    17    32    33    1
    18    32    34   ar
    19    34    35   ar
    20    35    36    1
    21     7     8   ar
    22     8     9   ar
    23     9    10   ar
    24    10    11    1
    25    11    12    1
    26    12    13    1
    27    13    14    1
    28    13    15    1
    29    15    16    1
    30    16    17    1
    31    16    18    1
    32    10     1   ar
    33    18    11    1
    34     8     3   ar
    35    35    29   ar
    36    21    23    1
    37    21    24    1
    38    27    28    1
    39    15    19    1
@<TRIPOS>MOLECULE
*****
 36 39 0 0 0
SMALL
GASTEIGER

@<TRIPOS>ATOM
      1 C         143.4014  143.1146  164.3323 C.ar    1  UNL1        0.1534
      2 C         143.8870  143.0245  165.7486 C.ar    1  UNL1        0.0591
      3 C         143.0010  142.4420  166.8096 C.ar    1  UNL1        0.1072
      4 N         143.4867  142.3519  168.2260 N.ar    1  UNL1       -0.1477
      5 N         142.6007  141.7693  169.2870 N.ar    1  UNL1       -0.1421
      6 C         141.2291  141.2769  168.9316 C.ar    1  UNL1        0.1690
      7 C         140.7435  141.3670  167.5153 C.ar    1  UNL1        0.0740
      8 C         141.6295  141.9495  166.4543 C.ar    1  UNL1        0.0359
      9 C         141.1439  142.0396  165.0380 C.ar    1  UNL1        0.0204
     10 C         142.0298  142.6222  163.9770 C.ar    1  UNL1        0.0825
     11 N         141.5442  142.7123  162.5606 N.pl3   1  UNL1       -0.3024
     12 C         141.2461  144.0512  161.9537 C.3     1  UNL1        0.1065
     13 C         140.7605  144.1413  160.5374 C.3     1  UNL1        0.0741
     14 C         140.4624  145.4803  159.9305 C.3     1  UNL1        0.0189
     15 N         140.5729  142.8925  159.7279 N.3     1  UNL1       -0.2969
     16 C         140.8710  141.5535  160.3348 C.3     1  UNL1        0.0741
     17 C         140.6835  140.3047  159.5253 C.3     1  UNL1        0.0189
     18 C         141.3567  141.4634  161.7512 C.3     1  UNL1        0.1065
     19 H         141.1694  142.9823  158.9054 H       1  UNL1        0.1233
     20 C         140.3431  140.6943  169.9926 C.2     1  UNL1        0.2635
     21 N         140.7591  139.4478  170.7159 N.am    1  UNL1       -0.3240
     22 O         139.0412  141.3583  170.3304 O.2     1  UNL1       -0.2686
     23 H         141.6136  139.0120  170.4942 H       1  UNL1        0.1453
     24 H         140.1777  139.0654  171.4123 H       1  UNL1        0.1453
     25 C         144.9408  142.7988  162.2634 C.3     1  UNL1        0.2525
     26 O         144.2874  143.6971  163.2713 O.3     1  UNL1       -0.4701
     27 N         139.3720  140.8745  167.1600 N.pl3   1  UNL1       -0.3094
     28 H         138.6162  141.0411  167.7685 H       1  UNL1        0.1523
     29 C         139.1519  140.1283  165.8775 C.ar    1  UNL1        0.0761
     30 C         139.7542  138.7675  165.6887 C.ar    1  UNL1        0.0166
     31 C         139.5342  138.0212  164.4063 C.ar    1  UNL1       -0.0028
     32 C         138.7118  138.6357  163.3126 C.ar    1  UNL1       -0.0195
     33 C         138.4918  137.8894  162.0302 C.3     1  UNL1        0.0311
     34 C         138.1095  139.9964  163.5013 C.ar    1  UNL1        0.0267
     35 C         138.3295  140.7427  164.7838 C.ar    1  UNL1        0.1531
     36 F         137.7272  142.1034  164.9726 F       1  UNL1       -0.2029
@<TRIPOS>BOND
     1    25    26    1
     2    26     1    1
     3     1     2   ar
     4     2     3   ar
     5     3     4   ar
     6     4     5   ar
     7     5     6   ar
     8     6    20    1
     9    20    21   am
    10    20    22    2
    11     6     7   ar
    12     7    27    1
    13    27    29    1
    14    29    30   ar
    15    30    31   ar
    16    31    32   ar
    17    32    33    1
    18    32    34   ar
    19    34    35   ar
    20    35    36    1
    21     7     8   ar
    22     8     9   ar
    23     9    10   ar
    24    10    11    1
    25    11    12    1
    26    12    13    1
    27    13    14    1
    28    13    15    1
    29    15    16    1
    30    16    17    1
    31    16    18    1
    32    10     1   ar
    33    18    11    1
    34     8     3   ar
    35    35    29   ar
    36    21    23    1
    37    21    24    1
    38    27    28    1
    39    15    19    1
@<TRIPOS>MOLECULE
*****
 36 39 0 0 0
SMALL
GASTEIGER

@<TRIPOS>ATOM
      1 C         139.1326  139.1456  159.9794 C.ar    1  UNL1        0.1534
      2 C         139.0675  138.0511  161.0030 C.ar    1  UNL1        0.0591
      3 C         138.9696  138.3922  162.4604 C.ar    1  UNL1        0.1072
      4 N         138.9045  137.2976  163.4841 N.ar    1  UNL1       -0.1477
      5 N         138.8066  137.6387  164.9415 N.ar    1  UNL1       -0.1421
      6 C         138.7738  139.0743  165.3753 C.ar    1  UNL1        0.1690
      7 C         138.8389  140.1687  164.3516 C.ar    1  UNL1        0.0740
      8 C         138.9368  139.8277  162.8942 C.ar    1  UNL1        0.0359
      9 C         139.0019  140.9221  161.8706 C.ar    1  UNL1        0.0204
     10 C         139.0998  140.5811  160.4131 C.ar    1  UNL1        0.0825
     11 N         139.1648  141.6756  159.3895 N.pl3   1  UNL1       -0.3024
     12 C         138.1116  141.7712  158.3258 C.3     1  UNL1        0.1065
     13 C         138.1766  142.8657  157.3021 C.3     1  UNL1        0.0741
     14 C         137.1233  142.9613  156.2384 C.3     1  UNL1        0.0189
     15 N         139.2950  143.8646  157.3422 N.3     1  UNL1       -0.2969
     16 C         140.3482  143.7690  158.4059 C.3     1  UNL1        0.0741
     17 C         141.4665  144.7678  158.4460 C.3     1  UNL1        0.0189
     18 C         140.2831  142.6745  159.4295 C.3     1  UNL1        0.1065
     19 H         138.8647  144.7847  157.4356 H       1  UNL1        0.1233
     20 C         138.6759  139.4153  166.8327 C.2     1  UNL1        0.2635
     21 N         137.6969  138.6908  167.7084 N.am    1  UNL1       -0.3240
     22 O         139.5569  140.4809  167.4145 O.2     1  UNL1       -0.2686
     23 H         137.1187  137.9915  167.3266 H       1  UNL1        0.1453
     24 H         137.6326  138.9146  168.6650 H       1  UNL1        0.1453
     25 C         140.5616  138.4674  157.9183 C.3     1  UNL1        0.2525
     26 O         139.2305  138.8045  158.5219 O.3     1  UNL1       -0.4701
     27 N         138.8060  141.6042  164.7854 N.pl3   1  UNL1       -0.3094
     28 H         137.9971  141.9720  165.2093 H       1  UNL1        0.1523
     29 C         140.0057  142.4795  164.5734 C.ar    1  UNL1        0.0761
     30 C         141.3851  141.9161  164.7464 C.ar    1  UNL1        0.0166
     31 C         142.5847  142.7912  164.5343 C.ar    1  UNL1       -0.0028
     32 C         142.4050  144.2298  164.1494 C.ar    1  UNL1       -0.0195
     33 C         143.6046  145.1050  163.9373 C.3     1  UNL1        0.0311
     34 C         141.0256  144.7932  163.9764 C.ar    1  UNL1        0.0267
     35 C         139.8259  143.9180  164.1884 C.ar    1  UNL1        0.1531
     36 F         138.4466  144.4814  164.0155 F       1  UNL1       -0.2029
@<TRIPOS>BOND
     1    25    26    1
     2    26     1    1
     3     1     2   ar
     4     2     3   ar
     5     3     4   ar
     6     4     5   ar
     7     5     6   ar
     8     6    20    1
     9    20    21   am
    10    20    22    2
    11     6     7   ar
    12     7    27    1
    13    27    29    1
    14    29    30   ar
    15    30    31   ar
    16    31    32   ar
    17    32    33    1
    18    32    34   ar
    19    34    35   ar
    20    35    36    1
    21     7     8   ar
    22     8     9   ar
    23     9    10   ar
    24    10    11    1
    25    11    12    1
    26    12    13    1
    27    13    14    1
    28    13    15    1
    29    15    16    1
    30    16    17    1
    31    16    18    1
    32    10     1   ar
    33    18    11    1
    34     8     3   ar
    35    35    29   ar
    36    21    23    1
    37    21    24    1
    38    27    28    1
    39    15    19    1
@<TRIPOS>MOLECULE
*****
 36 39 0 0 0
SMALL
GASTEIGER

@<TRIPOS>ATOM
      1 C         143.7179  139.4854  162.4793 C.ar    1  UNL1        0.1534
      2 C         144.0137  139.0091  161.0881 C.ar    1  UNL1        0.0591
      3 C         142.8945  138.8111  160.1092 C.ar    1  UNL1        0.1072
      4 N         143.1905  138.3348  158.7179 N.ar    1  UNL1       -0.1477
      5 N         142.0713  138.1369  157.7390 N.ar    1  UNL1       -0.1421
      6 C         140.6561  138.4152  158.1514 C.ar    1  UNL1        0.1690
      7 C         140.3603  138.8915  159.5427 C.ar    1  UNL1        0.0740
      8 C         141.4795  139.0894  160.5216 C.ar    1  UNL1        0.0359
      9 C         141.1836  139.5657  161.9128 C.ar    1  UNL1        0.0204
     10 C         142.3028  139.7637  162.8917 C.ar    1  UNL1        0.0825
     11 N         142.0069  140.2400  164.2830 N.pl3   1  UNL1       -0.3024
     12 C         141.1869  141.4783  164.4932 C.3     1  UNL1        0.1065
     13 C         140.8910  141.9546  165.8844 C.3     1  UNL1        0.0741
     14 C         140.0710  143.1930  166.0947 C.3     1  UNL1        0.0189
     15 N         141.4150  141.1926  167.0655 N.3     1  UNL1       -0.2969
     16 C         142.2349  139.9542  166.8552 C.3     1  UNL1        0.0741
     17 C         142.7589  139.1922  168.0362 C.3     1  UNL1        0.0189
     18 C         142.5309  139.4779  165.4639 C.3     1  UNL1        0.1065
     19 H         140.6053  140.9186  167.6220 H       1  UNL1        0.1233
     20 C         139.5369  138.2172  157.1726 C.2     1  UNL1        0.2635
     21 N         139.3642  136.8935  156.4885 N.am    1  UNL1       -0.3240
     22 O         138.5905  139.3430  156.8777 O.2     1  UNL1       -0.2686
     23 H         139.9853  136.1546  156.6821 H       1  UNL1        0.1453
     24 H         138.6296  136.7635  155.8461 H       1  UNL1        0.1453
     25 C         145.4322  141.0466  163.6513 C.3     1  UNL1        0.2525
     26 O         144.8371  139.6833  163.4582 O.3     1  UNL1       -0.4701
     27 N         138.9452  139.1698  159.9550 N.pl3   1  UNL1       -0.3094
     28 H         138.2285  138.5404  159.7110 H       1  UNL1        0.1523
     29 C         138.6220  140.4070  160.7392 C.ar    1  UNL1        0.0761
     30 C         138.9665  141.7576  160.1849 C.ar    1  UNL1        0.0166
     31 C         138.6433  142.9948  160.9690 C.ar    1  UNL1       -0.0028
     32 C         137.9757  142.8815  162.3075 C.ar    1  UNL1       -0.0195
     33 C         137.6525  144.1187  163.0916 C.3     1  UNL1        0.0311
     34 C         137.6312  141.5309  162.8618 C.ar    1  UNL1        0.0267
     35 C         137.9544  140.2936  162.0776 C.ar    1  UNL1        0.1531
     36 F         137.6099  138.9430  162.6319 F       1  UNL1       -0.2029
@<TRIPOS>BOND
     1    25    26    1
     2    26     1    1
     3     1     2   ar
     4     2     3   ar
     5     3     4   ar
     6     4     5   ar
     7     5     6   ar
     8     6    20    1
     9    20    21   am
    10    20    22    2
    11     6     7   ar
    12     7    27    1
    13    27    29    1
    14    29    30   ar
    15    30    31   ar
    16    31    32   ar
    17    32    33    1
    18    32    34   ar
    19    34    35   ar
    20    35    36    1
    21     7     8   ar
    22     8     9   ar
    23     9    10   ar
    24    10    11    1
    25    11    12    1
    26    12    13    1
    27    13    14    1
    28    13    15    1
    29    15    16    1
    30    16    17    1
    31    16    18    1
    32    10     1   ar
    33    18    11    1
    34     8     3   ar
    35    35    29   ar
    36    21    23    1
    37    21    24    1
    38    27    28    1
    39    15    19    1
