@<TRIPOS>MOLECULE
*****
 29 31 0 0 0
SMALL
GASTEIGER

@<TRIPOS>ATOM
      1 C         140.0406  144.0543  164.2970 C.ar    1  UNL1        0.0873
      2 S         141.0787  144.5461  163.3324 S.2     1  UNL1       -0.0433
      3 C         140.3732  145.0387  162.1036 C.ar    1  UNL1        0.1669
      4 N         138.8991  144.8513  162.3090 N.ar    1  UNL1       -0.2276
      5 C         138.6936  144.2429  163.6646 C.ar    1  UNL1        0.0750
      6 C         137.3731  143.8858  164.2797 C.3     1  UNL1        0.0534
      7 N         141.0269  145.6171  160.8838 N.am    1  UNL1       -0.2484
      8 C         140.6204  145.1444  159.5195 C.2     1  UNL1        0.3060
      9 O         139.5601  144.0932  159.3752 O.2     1  UNL1       -0.2524
     10 N         141.2741  145.7228  158.2997 N.am    1  UNL1       -0.2862
     11 H         141.7228  146.3071  160.9786 H       1  UNL1        0.1583
     12 H         141.9700  146.4127  158.3945 H       1  UNL1        0.1511
     13 C         140.8677  145.2501  156.9354 C.3     1  UNL1        0.1203
     14 C         139.6117  145.7732  156.3038 C.3     1  UNL1        0.1348
     15 C         138.7085  144.8435  155.5489 C.3     1  UNL1        0.0339
     16 O         139.2590  147.2258  156.4271 O.3     1  UNL1       -0.3545
     17 C         138.9397  148.0269  155.1998 C.3     1  UNL1        0.1420
     18 C         138.9868  149.5254  155.2489 C.3     1  UNL1        0.0297
     19 C         139.6404  150.8180  154.8591 C.3     1  UNL1        0.0026
     20 C         138.4148  150.8282  155.7238 C.3     1  UNL1        0.0026
     21 C         140.5664  142.8966  167.0143 C.1     1  UNL1       -0.0577
     22 C         140.3035  143.4754  165.6557 C.1     1  UNL1       -0.0519
     23 C         142.3374  139.0216  169.9889 C.3     1  UNL1        0.0327
     24 C         141.7148  140.3802  169.8602 C.ar    1  UNL1       -0.0021
     25 C         141.3551  141.1600  171.0901 C.ar    1  UNL1        0.0946
     26 N         140.7324  142.5186  170.9613 N.ar    1  UNL1       -0.2420
     27 C         140.4695  143.0974  169.6028 C.ar    1  UNL1        0.1070
     28 C         140.8293  142.3177  168.3729 C.ar    1  UNL1        0.0608
     29 C         141.4519  140.9591  168.5016 C.ar    1  UNL1        0.0071
@<TRIPOS>BOND
     1    23    24    1
     2    24    25   ar
     3    25    26   ar
     4    26    27   ar
     5    27    28   ar
     6    28    21    1
     7    21    22    3
     8    22     1    1
     9     1     2   ar
    10     2     3   ar
    11     3     7    1
    12     7     8   am
    13     8     9    2
    14     8    10   am
    15    10    13    1
    16    13    14    1
    17    14    15    1
    18    14    16    1
    19    16    17    1
    20    17    18    1
    21    18    19    1
    22    19    20    1
    23     3     4   ar
    24     4     5   ar
    25     5     6    1
    26    28    29   ar
    27    29    24   ar
    28     5     1   ar
    29    20    18    1
    30     7    11    1
    31    10    12    1
@<TRIPOS>MOLECULE
*****
 29 31 0 0 0
SMALL
GASTEIGER

@<TRIPOS>ATOM
      1 C         139.2548  139.2093  164.3952 C.ar    1  UNL1        0.0873
      2 S         138.2610  139.8401  163.4655 S.2     1  UNL1       -0.0433
      3 C         138.1877  138.9991  162.2254 C.ar    1  UNL1        0.1669
      4 N         139.1362  137.8486  162.3889 N.ar    1  UNL1       -0.2276
      5 C         139.7957  137.9785  163.7298 C.ar    1  UNL1        0.0750
      6 C         140.8169  137.0421  164.3046 C.3     1  UNL1        0.0534
      7 N         137.3185  139.2625  161.0316 N.am    1  UNL1       -0.2484
      8 C         137.8666  140.0166  159.8565 C.2     1  UNL1        0.3060
      9 O         139.2839  140.5074  159.8753 O.2     1  UNL1       -0.2524
     10 N         136.9974  140.2799  158.6627 N.am    1  UNL1       -0.2862
     11 H         136.3883  138.9403  161.0193 H       1  UNL1        0.1583
     12 H         136.0672  139.9578  158.6505 H       1  UNL1        0.1511
     13 C         137.5455  141.0340  157.4877 C.3     1  UNL1        0.1203
     14 C         137.5206  140.4152  156.1215 C.3     1  UNL1        0.1348
     15 C         138.7795  140.3391  155.3096 C.3     1  UNL1        0.0339
     16 O         136.2368  139.8725  155.5673 O.3     1  UNL1       -0.3545
     17 C         134.9381  140.5571  155.8752 C.3     1  UNL1        0.1420
     18 C         133.8627  139.8248  156.6217 C.3     1  UNL1        0.0297
     19 C         132.5641  139.0740  156.6248 C.3     1  UNL1        0.0026
     20 C         133.2987  139.3071  157.9116 C.3     1  UNL1        0.0026
     21 C         140.0252  140.2300  167.1089 C.1     1  UNL1       -0.0577
     22 C         139.6400  139.7197  165.7521 C.1     1  UNL1       -0.0519
     23 C         143.3877  142.7149  170.1943 C.3     1  UNL1        0.0327
     24 C         142.0917  141.9829  170.0085 C.ar    1  UNL1       -0.0021
     25 C         141.1809  141.7613  171.1795 C.ar    1  UNL1        0.0946
     26 N         139.8849  141.0293  170.9937 N.ar    1  UNL1       -0.2420
     27 C         139.4997  140.5188  169.6369 C.ar    1  UNL1        0.1070
     28 C         140.4104  140.7405  168.4659 C.ar    1  UNL1        0.0608
     29 C         141.7064  141.4725  168.6517 C.ar    1  UNL1        0.0071
@<TRIPOS>BOND
     1    23    24    1
     2    24    25   ar
     3    25    26   ar
     4    26    27   ar
     5    27    28   ar
     6    28    21    1
     7    21    22    3
     8    22     1    1
     9     1     2   ar
    10     2     3   ar
    11     3     7    1
    12     7     8   am
    13     8     9    2
    14     8    10   am
    15    10    13    1
    16    13    14    1
    17    14    15    1
    18    14    16    1
    19    16    17    1
    20    17    18    1
    21    18    19    1
    22    19    20    1
    23     3     4   ar
    24     4     5   ar
    25     5     6    1
    26    28    29   ar
    27    29    24   ar
    28     5     1   ar
    29    20    18    1
    30     7    11    1
    31    10    12    1
@<TRIPOS>MOLECULE
*****
 29 31 0 0 0
SMALL
GASTEIGER

@<TRIPOS>ATOM
      1 C         140.6338  144.0921  163.1695 C.ar    1  UNL1        0.0873
      2 S         141.7250  144.5169  162.2321 S.2     1  UNL1       -0.0433
      3 C         141.0838  145.1181  161.0165 C.ar    1  UNL1        0.1669
      4 N         139.5963  145.0648  161.2028 N.ar    1  UNL1       -0.2276
      5 C         139.3182  144.4307  162.5334 C.ar    1  UNL1        0.0750
      6 C         137.9626  144.1794  163.1243 C.3     1  UNL1        0.0534
      7 N         141.8036  145.6748  159.8241 N.am    1  UNL1       -0.2484
      8 C         141.4498  145.2008  158.4457 C.2     1  UNL1        0.3060
      9 O         140.3761  144.1699  158.2598 O.2     1  UNL1       -0.2524
     10 N         142.1696  145.7575  157.2533 N.am    1  UNL1       -0.2862
     11 H         142.5083  146.3514  159.9462 H       1  UNL1        0.1583
     12 H         142.8743  146.4340  157.3753 H       1  UNL1        0.1511
     13 C         141.8158  145.2834  155.8749 C.3     1  UNL1        0.1203
     14 C         140.8650  146.0779  155.0296 C.3     1  UNL1        0.1348
     15 C         140.7969  145.8386  153.5503 C.3     1  UNL1        0.0339
     16 O         139.9821  147.1117  155.6634 O.3     1  UNL1       -0.3545
     17 C         139.4391  148.2413  154.8394 C.3     1  UNL1        0.1420
     18 C         138.8681  149.4540  155.5129 C.3     1  UNL1        0.0297
     19 C         138.5261  150.9143  155.4869 C.3     1  UNL1        0.0026
     20 C         138.2213  150.0942  156.7052 C.3     1  UNL1        0.0026
     21 C         141.0156  142.7932  165.8467 C.1     1  UNL1       -0.0577
     22 C         140.8247  143.4426  164.5081 C.1     1  UNL1       -0.0519
     23 C         139.0442  140.3300  169.9754 C.3     1  UNL1        0.0327
     24 C         140.2208  140.9121  169.2496 C.ar    1  UNL1       -0.0021
     25 C         141.5882  140.8448  169.8624 C.ar    1  UNL1        0.0946
     26 N         142.7648  141.4270  169.1366 N.ar    1  UNL1       -0.2420
     27 C         142.5739  142.0764  167.7980 C.ar    1  UNL1        0.1070
     28 C         141.2065  142.1437  167.1853 C.ar    1  UNL1        0.0608
     29 C         140.0299  141.5616  167.9111 C.ar    1  UNL1        0.0071
@<TRIPOS>BOND
     1    23    24    1
     2    24    25   ar
     3    25    26   ar
     4    26    27   ar
     5    27    28   ar
     6    28    21    1
     7    21    22    3
     8    22     1    1
     9     1     2   ar
    10     2     3   ar
    11     3     7    1
    12     7     8   am
    13     8     9    2
    14     8    10   am
    15    10    13    1
    16    13    14    1
    17    14    15    1
    18    14    16    1
    19    16    17    1
    20    17    18    1
    21    18    19    1
    22    19    20    1
    23     3     4   ar
    24     4     5   ar
    25     5     6    1
    26    28    29   ar
    27    29    24   ar
    28     5     1   ar
    29    20    18    1
    30     7    11    1
    31    10    12    1
@<TRIPOS>MOLECULE
*****
 29 31 0 0 0
SMALL
GASTEIGER

@<TRIPOS>ATOM
      1 C         140.2678  144.0428  164.4716 C.ar    1  UNL1        0.0873
      2 S         141.3762  144.4209  163.5343 S.2     1  UNL1       -0.0433
      3 C         140.7587  144.9996  162.2957 C.ar    1  UNL1        0.1669
      4 N         139.2686  144.9790  162.4676 N.ar    1  UNL1       -0.2276
      5 C         138.9653  144.3877  163.8124 C.ar    1  UNL1        0.0750
      6 C         137.5993  144.1781  164.3955 C.3     1  UNL1        0.0534
      7 N         141.5008  145.5093  161.0960 N.am    1  UNL1       -0.2484
      8 C         141.3999  144.7832  159.7873 C.2     1  UNL1        0.3060
      9 O         140.5568  143.5473  159.6785 O.2     1  UNL1       -0.2524
     10 N         142.1421  145.2929  158.5876 N.am    1  UNL1       -0.2862
     11 H         142.0542  146.3204  161.1675 H       1  UNL1        0.1583
     12 H         142.6954  146.1040  158.6591 H       1  UNL1        0.1511
     13 C         142.0411  144.5668  157.2790 C.3     1  UNL1        0.1203
     14 C         142.9201  143.3816  157.0092 C.3     1  UNL1        0.1348
     15 C         143.4950  143.1705  155.6399 C.3     1  UNL1        0.0339
     16 O         143.2241  142.4075  158.1086 O.3     1  UNL1       -0.3545
     17 C         144.5359  142.4789  158.8323 C.3     1  UNL1        0.1420
     18 C         144.5645  142.5119  160.3318 C.3     1  UNL1        0.0297
     19 C         144.8528  141.8383  161.6407 C.3     1  UNL1        0.0026
     20 C         144.3256  143.2424  161.6198 C.3     1  UNL1        0.0026
     21 C         140.5981  142.8126  167.1877 C.1     1  UNL1       -0.0577
     22 C         140.4330  143.4277  165.8297 C.1     1  UNL1       -0.0519
     23 C         142.3382  138.9504  170.1971 C.3     1  UNL1        0.0327
     24 C         141.6334  140.2664  170.0505 C.ar    1  UNL1       -0.0021
     25 C         141.0938  140.9672  171.2619 C.ar    1  UNL1        0.0946
     26 N         140.3889  142.2832  171.1153 N.ar    1  UNL1       -0.2420
     27 C         140.2237  142.8983  169.7573 C.ar    1  UNL1        0.1070
     28 C         140.7633  142.1974  168.5458 C.ar    1  UNL1        0.0608
     29 C         141.4682  140.8815  168.6924 C.ar    1  UNL1        0.0071
@<TRIPOS>BOND
     1    23    24    1
     2    24    25   ar
     3    25    26   ar
     4    26    27   ar
     5    27    28   ar
     6    28    21    1
     7    21    22    3
     8    22     1    1
     9     1     2   ar
    10     2     3   ar
    11     3     7    1
    12     7     8   am
    13     8     9    2
    14     8    10   am
    15    10    13    1
    16    13    14    1
    17    14    15    1
    18    14    16    1
    19    16    17    1
    20    17    18    1
    21    18    19    1
    22    19    20    1
    23     3     4   ar
    24     4     5   ar
    25     5     6    1
    26    28    29   ar
    27    29    24   ar
    28     5     1   ar
    29    20    18    1
    30     7    11    1
    31    10    12    1
@<TRIPOS>MOLECULE
*****
 29 31 0 0 0
SMALL
GASTEIGER

@<TRIPOS>ATOM
      1 C         138.5871  141.4255  164.3425 C.ar    1  UNL1        0.0873
      2 S         138.4718  140.3708  163.2822 S.2     1  UNL1       -0.0433
      3 C         137.7304  140.9614  162.1195 C.ar    1  UNL1        0.1669
      4 N         137.3876  142.3812  162.4615 N.ar    1  UNL1       -0.2276
      5 C         137.9170  142.6679  163.8353 C.ar    1  UNL1        0.0750
      6 C         137.7974  143.9687  164.5725 C.3     1  UNL1        0.0534
      7 N         137.3914  140.2562  160.8398 N.am    1  UNL1       -0.2484
      8 C         137.9919  140.7203  159.5459 C.2     1  UNL1        0.3060
      9 O         138.9312  141.8896  159.5319 O.2     1  UNL1       -0.2524
     10 N         137.6529  140.0151  158.2662 N.am    1  UNL1       -0.2862
     11 H         136.7749  139.4887  160.8491 H       1  UNL1        0.1583
     12 H         137.0363  139.2476  158.2755 H       1  UNL1        0.1511
     13 C         138.2532  140.4791  156.9724 C.3     1  UNL1        0.1203
     14 C         137.4238  140.4922  155.7227 C.3     1  UNL1        0.1348
     15 C         137.5167  141.6494  154.7728 C.3     1  UNL1        0.0339
     16 O         136.5013  139.3481  155.4228 O.3     1  UNL1       -0.3545
     17 C         135.1462  139.6112  154.8359 C.3     1  UNL1        0.1420
     18 C         133.9317  139.5951  155.7162 C.3     1  UNL1        0.0297
     19 C         132.7583  140.3049  156.3240 C.3     1  UNL1        0.0026
     20 C         133.0015  138.8574  156.6329 C.3     1  UNL1        0.0026
     21 C         139.9234  141.1059  167.0094 C.1     1  UNL1       -0.0577
     22 C         139.2553  141.2657  165.6760 C.1     1  UNL1       -0.0519
     23 C         142.9115  138.3472  170.2436 C.3     1  UNL1        0.0327
     24 C         142.0856  139.5668  169.9600 C.ar    1  UNL1       -0.0021
     25 C         141.9278  140.6265  171.0097 C.ar    1  UNL1        0.0946
     26 N         141.1019  141.8461  170.7260 N.ar    1  UNL1       -0.2420
     27 C         140.4338  142.0059  169.3926 C.ar    1  UNL1        0.1070
     28 C         140.5916  140.9462  168.3429 C.ar    1  UNL1        0.0608
     29 C         141.4175  139.7266  168.6265 C.ar    1  UNL1        0.0071
@<TRIPOS>BOND
     1    23    24    1
     2    24    25   ar
     3    25    26   ar
     4    26    27   ar
     5    27    28   ar
     6    28    21    1
     7    21    22    3
     8    22     1    1
     9     1     2   ar
    10     2     3   ar
    11     3     7    1
    12     7     8   am
    13     8     9    2
    14     8    10   am
    15    10    13    1
    16    13    14    1
    17    14    15    1
    18    14    16    1
    19    16    17    1
    20    17    18    1
    21    18    19    1
    22    19    20    1
    23     3     4   ar
    24     4     5   ar
    25     5     6    1
    26    28    29   ar
    27    29    24   ar
    28     5     1   ar
    29    20    18    1
    30     7    11    1
    31    10    12    1
@<TRIPOS>MOLECULE
*****
 29 31 0 0 0
SMALL
GASTEIGER

@<TRIPOS>ATOM
      1 C         141.3995  138.5865  164.3798 C.ar    1  UNL1        0.0873
      2 S         142.5062  138.5559  163.3676 S.2     1  UNL1       -0.0433
      3 C         142.0337  137.7584  162.1882 C.ar    1  UNL1        0.1669
      4 N         140.6350  137.2962  162.4716 N.ar    1  UNL1       -0.2276
      5 C         140.2432  137.8080  163.8260 C.ar    1  UNL1        0.0750
      6 C         138.9262  137.5811  164.5072 C.3     1  UNL1        0.0534
      7 N         142.8214  137.4733  160.9440 N.am    1  UNL1       -0.2484
      8 C         142.3832  138.0495  159.6303 C.2     1  UNL1        0.3060
      9 O         141.1571  138.9109  159.5609 O.2     1  UNL1       -0.2524
     10 N         143.1709  137.7643  158.3860 N.am    1  UNL1       -0.2862
     11 H         143.6261  136.9079  160.9896 H       1  UNL1        0.1583
     12 H         143.9756  137.1990  158.4317 H       1  UNL1        0.1511
     13 C         142.7327  138.3405  157.0724 C.3     1  UNL1        0.1203
     14 C         141.9611  137.4954  156.1027 C.3     1  UNL1        0.1348
     15 C         141.3302  138.1246  154.8960 C.3     1  UNL1        0.0339
     16 O         141.8204  136.0210  156.3396 O.3     1  UNL1       -0.3545
     17 C         141.2049  135.1475  155.2869 C.3     1  UNL1        0.1420
     18 C         141.5079  133.6786  155.2597 C.3     1  UNL1        0.0297
     19 C         142.1247  132.4675  155.8944 C.3     1  UNL1        0.0026
     20 C         141.4160  132.3457  154.5780 C.3     1  UNL1        0.0026
     21 C         141.4844  139.9631  167.0439 C.1     1  UNL1       -0.0577
     22 C         141.4420  139.2748  165.7119 C.1     1  UNL1       -0.0519
     23 C         140.4375  144.1021  170.0058 C.3     1  UNL1        0.0327
     24 C         141.0034  142.7209  169.8569 C.ar    1  UNL1       -0.0021
     25 C         141.6116  142.0281  171.0401 C.ar    1  UNL1        0.0946
     26 N         142.1775  140.6469  170.8913 N.ar    1  UNL1       -0.2420
     27 C         142.1351  139.9586  169.5592 C.ar    1  UNL1        0.1070
     28 C         141.5268  140.6514  168.3761 C.ar    1  UNL1        0.0608
     29 C         140.9610  142.0326  168.5249 C.ar    1  UNL1        0.0071
@<TRIPOS>BOND
     1    23    24    1
     2    24    25   ar
     3    25    26   ar
     4    26    27   ar
     5    27    28   ar
     6    28    21    1
     7    21    22    3
     8    22     1    1
     9     1     2   ar
    10     2     3   ar
    11     3     7    1
    12     7     8   am
    13     8     9    2
    14     8    10   am
    15    10    13    1
    16    13    14    1
    17    14    15    1
    18    14    16    1
    19    16    17    1
    20    17    18    1
    21    18    19    1
    22    19    20    1
    23     3     4   ar
    24     4     5   ar
    25     5     6    1
    26    28    29   ar
    27    29    24   ar
    28     5     1   ar
    29    20    18    1
    30     7    11    1
    31    10    12    1
@<TRIPOS>MOLECULE
*****
 29 31 0 0 0
SMALL
GASTEIGER

@<TRIPOS>ATOM
      1 C         140.1726  143.9001  163.4994 C.ar    1  UNL1        0.0873
      2 S         141.3254  144.2029  162.5888 S.2     1  UNL1       -0.0433
      3 C         140.7893  144.9191  161.3847 C.ar    1  UNL1        0.1669
      4 N         139.3051  145.0589  161.5513 N.ar    1  UNL1       -0.2276
      5 C         138.9240  144.4291  162.8583 C.ar    1  UNL1        0.0750
      6 C         137.5377  144.3434  163.4247 C.3     1  UNL1        0.0534
      7 N         141.5957  145.4094  160.2189 N.am    1  UNL1       -0.2484
      8 C         141.7797  144.5355  159.0137 C.2     1  UNL1        0.3060
      9 O         141.1573  143.1713  158.9745 O.2     1  UNL1       -0.2524
     10 N         142.5861  145.0258  157.8478 N.am    1  UNL1       -0.2862
     11 H         142.0042  146.3048  160.2447 H       1  UNL1        0.1583
     12 H         142.9946  145.9212  157.8736 H       1  UNL1        0.1511
     13 C         142.7702  144.1520  156.6427 C.3     1  UNL1        0.1203
     14 C         141.8666  144.3109  155.4560 C.3     1  UNL1        0.1348
     15 C         140.7240  143.3609  155.2508 C.3     1  UNL1        0.0339
     16 O         142.1056  145.4196  154.4745 O.3     1  UNL1       -0.3545
     17 C         140.9526  146.2346  153.9682 C.3     1  UNL1        0.1420
     18 C         140.0345  146.9185  154.9375 C.3     1  UNL1        0.0297
     19 C         139.4305  147.0157  156.3071 C.3     1  UNL1        0.0026
     20 C         139.0487  148.0057  155.2469 C.3     1  UNL1        0.0026
     21 C         140.3356  142.4849  166.1396 C.1     1  UNL1       -0.0577
     22 C         140.2541  143.1924  164.8196 C.1     1  UNL1       -0.0519
     23 C         142.0909  142.2625  171.0253 C.3     1  UNL1        0.0327
     24 C         141.2948  141.6661  169.9026 C.ar    1  UNL1       -0.0021
     25 C         140.5803  140.3621  170.0999 C.ar    1  UNL1        0.0946
     26 N         139.7842  139.7656  168.9772 N.ar    1  UNL1       -0.2420
     27 C         139.7027  140.4732  167.6571 C.ar    1  UNL1        0.1070
     28 C         140.4172  141.7772  167.4598 C.ar    1  UNL1        0.0608
     29 C         141.2132  142.3737  168.5825 C.ar    1  UNL1        0.0071
@<TRIPOS>BOND
     1    23    24    1
     2    24    25   ar
     3    25    26   ar
     4    26    27   ar
     5    27    28   ar
     6    28    21    1
     7    21    22    3
     8    22     1    1
     9     1     2   ar
    10     2     3   ar
    11     3     7    1
    12     7     8   am
    13     8     9    2
    14     8    10   am
    15    10    13    1
    16    13    14    1
    17    14    15    1
    18    14    16    1
    19    16    17    1
    20    17    18    1
    21    18    19    1
    22    19    20    1
    23     3     4   ar
    24     4     5   ar
    25     5     6    1
    26    28    29   ar
    27    29    24   ar
    28     5     1   ar
    29    20    18    1
    30     7    11    1
    31    10    12    1
@<TRIPOS>MOLECULE
*****
 29 31 0 0 0
SMALL
GASTEIGER

@<TRIPOS>ATOM
      1 C         140.6536  144.1188  163.1628 C.ar    1  UNL1        0.0873
      2 S         141.7405  144.5137  162.2074 S.2     1  UNL1       -0.0433
      3 C         141.0953  145.1190  160.9960 C.ar    1  UNL1        0.1669
      4 N         139.6097  145.0981  161.2028 N.ar    1  UNL1       -0.2276
      5 C         139.3368  144.4799  162.5420 C.ar    1  UNL1        0.0750
      6 C         137.9845  144.2613  163.1530 C.3     1  UNL1        0.0534
      7 N         141.8102  145.6516  159.7896 N.am    1  UNL1       -0.2484
      8 C         141.4740  145.1256  158.4257 C.2     1  UNL1        0.3060
      9 O         140.4229  144.0671  158.2682 O.2     1  UNL1       -0.2524
     10 N         142.1889  145.6582  157.2193 N.am    1  UNL1       -0.2862
     11 H         142.5000  146.3463  159.8931 H       1  UNL1        0.1583
     12 H         142.8787  146.3530  157.3228 H       1  UNL1        0.1511
     13 C         141.8527  145.1324  155.8554 C.3     1  UNL1        0.1203
     14 C         140.9748  145.9317  154.9388 C.3     1  UNL1        0.1348
     15 C         141.0851  145.7566  153.4531 C.3     1  UNL1        0.0339
     16 O         139.9866  146.9062  155.5077 O.3     1  UNL1       -0.3545
     17 C         138.5224  146.7387  155.2288 C.3     1  UNL1        0.1420
     18 C         137.9423  145.3650  155.0655 C.3     1  UNL1        0.0297
     19 C         137.3823  144.2876  154.1849 C.3     1  UNL1        0.0026
     20 C         137.4976  144.0632  155.6634 C.3     1  UNL1        0.0026
     21 C         141.0450  142.8324  165.8447 C.1     1  UNL1       -0.0577
     22 C         140.8493  143.4756  164.5038 C.1     1  UNL1       -0.0519
     23 C         139.0904  140.3777  169.9864 C.3     1  UNL1        0.0327
     24 C         140.2634  140.9619  169.2564 C.ar    1  UNL1       -0.0021
     25 C         141.6320  140.9028  169.8674 C.ar    1  UNL1        0.0946
     26 N         142.8050  141.4870  169.1374 N.ar    1  UNL1       -0.2420
     27 C         142.6094  142.1302  167.7965 C.ar    1  UNL1        0.1070
     28 C         141.2407  142.1892  167.1856 C.ar    1  UNL1        0.0608
     29 C         140.0677  141.6050  167.9156 C.ar    1  UNL1        0.0071
@<TRIPOS>BOND
     1    23    24    1
     2    24    25   ar
     3    25    26   ar
     4    26    27   ar
     5    27    28   ar
     6    28    21    1
     7    21    22    3
     8    22     1    1
     9     1     2   ar
    10     2     3   ar
    11     3     7    1
    12     7     8   am
    13     8     9    2
    14     8    10   am
    15    10    13    1
    16    13    14    1
    17    14    15    1
    18    14    16    1
    19    16    17    1
    20    17    18    1
    21    18    19    1
    22    19    20    1
    23     3     4   ar
    24     4     5   ar
    25     5     6    1
    26    28    29   ar
    27    29    24   ar
    28     5     1   ar
    29    20    18    1
    30     7    11    1
    31    10    12    1
@<TRIPOS>MOLECULE
*****
 29 31 0 0 0
SMALL
GASTEIGER

@<TRIPOS>ATOM
      1 C         142.6471  143.0333  163.6620 C.ar    1  UNL1        0.0873
      2 S         143.6738  142.2727  162.8761 S.2     1  UNL1       -0.0433
      3 C         144.0989  143.1278  161.7192 C.ar    1  UNL1        0.1669
      4 N         143.3349  144.4168  161.7902 N.ar    1  UNL1       -0.2276
      5 C         142.4377  144.3583  162.9909 C.ar    1  UNL1        0.0750
      6 C         141.4963  145.4357  163.4414 C.3     1  UNL1        0.0534
      7 N         145.1103  142.7587  160.6749 N.am    1  UNL1       -0.2484
      8 C         144.7018  142.6670  159.2345 C.2     1  UNL1        0.3060
      9 O         143.2818  142.9443  158.8386 O.2     1  UNL1       -0.2524
     10 N         145.7132  142.2979  158.1901 N.am    1  UNL1       -0.2862
     11 H         146.0423  142.5767  160.9348 H       1  UNL1        0.1583
     12 H         146.6452  142.1158  158.4500 H       1  UNL1        0.1511
     13 C         145.3047  142.2061  156.7498 C.3     1  UNL1        0.1203
     14 C         146.1845  141.4955  155.7645 C.3     1  UNL1        0.1348
     15 C         145.5918  140.5013  154.8104 C.3     1  UNL1        0.0339
     16 O         147.6571  141.7790  155.7331 O.3     1  UNL1       -0.3545
     17 C         148.2612  142.4789  154.5520 C.3     1  UNL1        0.1420
     18 C         147.4778  143.5287  153.8209 C.3     1  UNL1        0.0297
     19 C         146.5422  143.9160  152.7143 C.3     1  UNL1        0.0026
     20 C         147.0566  144.9594  153.6612 C.3     1  UNL1        0.0026
     21 C         141.2568  142.0728  166.1408 C.1     1  UNL1       -0.0577
     22 C         141.9520  142.5530  164.9014 C.1     1  UNL1       -0.0519
     23 C         139.6539  142.9097  171.0122 C.3     1  UNL1        0.0327
     24 C         139.7602  142.0110  169.8159 C.ar    1  UNL1       -0.0021
     25 C         139.1714  140.6321  169.8590 C.ar    1  UNL1        0.0946
     26 N         139.2777  139.7334  168.6628 N.ar    1  UNL1       -0.2420
     27 C         139.9728  140.2136  167.4234 C.ar    1  UNL1        0.1070
     28 C         140.5617  141.5925  167.3802 C.ar    1  UNL1        0.0608
     29 C         140.4554  142.4912  168.5765 C.ar    1  UNL1        0.0071
@<TRIPOS>BOND
     1    23    24    1
     2    24    25   ar
     3    25    26   ar
     4    26    27   ar
     5    27    28   ar
     6    28    21    1
     7    21    22    3
     8    22     1    1
     9     1     2   ar
    10     2     3   ar
    11     3     7    1
    12     7     8   am
    13     8     9    2
    14     8    10   am
    15    10    13    1
    16    13    14    1
    17    14    15    1
    18    14    16    1
    19    16    17    1
    20    17    18    1
    21    18    19    1
    22    19    20    1
    23     3     4   ar
    24     4     5   ar
    25     5     6    1
    26    28    29   ar
    27    29    24   ar
    28     5     1   ar
    29    20    18    1
    30     7    11    1
    31    10    12    1
