@<TRIPOS>MOLECULE
*****
 31 34 0 0 0
SMALL
GASTEIGER

@<TRIPOS>ATOM
      1 C         140.0546  139.6360  160.1720 C.ar    1  UNL1        0.2553
      2 N         141.5355  139.7633  159.9709 N.ar    1  UNL1       -0.1957
      3 C         142.1947  139.0887  158.8045 C.ar    1  UNL1        0.1276
      4 N         143.6757  139.2160  158.6034 N.pl3   1  UNL1       -0.3427
      5 C         141.3730  138.2870  157.8392 C.ar    1  UNL1        0.0484
      6 C         139.8920  138.1597  158.0402 C.ar    1  UNL1        0.1363
      7 N         139.2327  138.8342  159.2066 N.ar    1  UNL1       -0.1951
      8 N         139.3451  137.3098  156.9318 N.am    1  UNL1       -0.2692
      9 C         140.4881  136.9117  156.0458 C.2     1  UNL1        0.2302
     10 O         140.3942  136.0594  154.8151 O.2     1  UNL1       -0.2744
     11 C         141.7414  137.5157  156.6065 C.3     1  UNL1        0.0932
     12 C         142.4007  136.8412  155.4402 C.3     1  UNL1        0.0137
     13 C         143.1325  137.9786  156.9235 C.3     1  UNL1        0.0137
     14 H         144.2151  139.7423  159.2370 H       1  UNL1        0.1437
     15 H         144.1084  138.7733  157.8379 H       1  UNL1        0.1437
     16 H         138.4016  137.0574  156.8077 H       1  UNL1        0.1563
     17 C         138.3087  141.9763  162.7293 C.ar    1  UNL1        0.0805
     18 N         138.8910  141.7229  161.3705 N.ar    1  UNL1       -0.1670
     19 N         139.3953  140.3105  161.3383 N.ar    1  UNL1       -0.1967
     20 C         139.1246  139.6911  162.6774 C.ar    1  UNL1        0.0871
     21 C         139.4028  138.3226  163.2249 C.ar    1  UNL1        0.0202
     22 C         139.0095  137.9836  164.6321 C.ar    1  UNL1        0.0129
     23 C         138.3379  139.0131  165.4918 C.ar    1  UNL1        0.0578
     24 CL        137.9445  138.6741  166.8991 Cl      1  UNL1       -0.0822
     25 C         138.0596  140.3816  164.9443 C.ar    1  UNL1        0.0141
     26 C         138.4530  140.7206  163.5371 C.ar    1  UNL1        0.0339
     27 C         137.6905  143.2600  163.1982 C.3     1  UNL1        0.0476
     28 C         138.5650  144.4084  163.6066 C.3     1  UNL1        0.0064
     29 C         138.8808  144.6323  165.0557 C.3     1  UNL1        0.0004
     30 C         140.9981  143.1322  165.1841 C.3     1  UNL1        0.0000
     31 C         139.7297  143.6443  165.7996 C.3     1  UNL1        0.0000
@<TRIPOS>BOND
     1    30    31    1
     2    31    29    1
     3    29    28    1
     4    28    27    1
     5    27    17    1
     6    17    18   ar
     7    18    19   ar
     8    19     1    1
     9     1     2   ar
    10     2     3   ar
    11     3     4    1
    12     3     5   ar
    13     5     6   ar
    14     6     7   ar
    15     6     8    1
    16     8     9   am
    17     9    10    2
    18     9    11    1
    19    11    12    1
    20    11    13    1
    21    19    20   ar
    22    20    21   ar
    23    21    22   ar
    24    22    23   ar
    25    23    24    1
    26    23    25   ar
    27    25    26   ar
    28    26    17   ar
    29     7     1   ar
    30    26    20   ar
    31    11     5    1
    32     4    14    1
    33     4    15    1
    34     8    16    1
@<TRIPOS>MOLECULE
*****
 31 34 0 0 0
SMALL
GASTEIGER

@<TRIPOS>ATOM
      1 C         139.6774  139.6304  159.8478 C.ar    1  UNL1        0.2553
      2 N         138.8356  139.5111  158.6121 N.ar    1  UNL1       -0.1957
      3 C         139.3851  138.8316  157.3930 C.ar    1  UNL1        0.1276
      4 N         138.5433  138.7123  156.1572 N.pl3   1  UNL1       -0.3427
      5 C         140.7765  138.2713  157.4095 C.ar    1  UNL1        0.0484
      6 C         141.6183  138.3906  158.6452 C.ar    1  UNL1        0.1363
      7 N         141.0688  139.0701  159.8644 N.ar    1  UNL1       -0.1951
      8 N         142.9442  137.7467  158.3668 N.am    1  UNL1       -0.2692
      9 C         142.9217  137.2295  156.9589 C.2     1  UNL1        0.2302
     10 O         144.0423  136.5138  156.2647 O.2     1  UNL1       -0.2744
     11 C         141.5820  137.5538  156.3674 C.3     1  UNL1        0.0932
     12 C         142.1315  136.8743  155.1482 C.3     1  UNL1        0.0137
     13 C         140.3572  137.7359  155.5209 C.3     1  UNL1        0.0137
     14 H         137.6301  139.0800  156.1464 H       1  UNL1        0.1437
     15 H         138.9039  138.2663  155.3571 H       1  UNL1        0.1437
     16 H         143.6969  137.6760  158.9973 H       1  UNL1        0.1563
     17 C         138.1934  141.9882  162.5504 C.ar    1  UNL1        0.0805
     18 N         138.6610  141.7330  161.1481 N.ar    1  UNL1       -0.1670
     19 N         139.1279  140.3099  161.0670 N.ar    1  UNL1       -0.1967
     20 C         138.9489  139.6854  162.4191 C.ar    1  UNL1        0.0871
     21 C         139.2371  138.3064  162.9338 C.ar    1  UNL1        0.0202
     22 C         138.9478  137.9646  164.3654 C.ar    1  UNL1        0.0129
     23 C         138.3703  139.0018  165.2822 C.ar    1  UNL1        0.0578
     24 CL        138.0810  138.6600  166.7138 Cl      1  UNL1       -0.0822
     25 C         138.0820  140.3809  164.7674 C.ar    1  UNL1        0.0141
     26 C         138.3713  140.7227  163.3358 C.ar    1  UNL1        0.0339
     27 C         137.6443  143.2817  163.0751 C.3     1  UNL1        0.0476
     28 C         138.5740  144.4106  163.4090 C.3     1  UNL1        0.0064
     29 C         138.8986  144.7161  164.8413 C.3     1  UNL1        0.0004
     30 C         140.8648  143.0413  165.1219 C.3     1  UNL1        0.0000
     31 C         139.6415  143.7125  165.6724 C.3     1  UNL1        0.0000
@<TRIPOS>BOND
     1    30    31    1
     2    31    29    1
     3    29    28    1
     4    28    27    1
     5    27    17    1
     6    17    18   ar
     7    18    19   ar
     8    19     1    1
     9     1     2   ar
    10     2     3   ar
    11     3     4    1
    12     3     5   ar
    13     5     6   ar
    14     6     7   ar
    15     6     8    1
    16     8     9   am
    17     9    10    2
    18     9    11    1
    19    11    12    1
    20    11    13    1
    21    19    20   ar
    22    20    21   ar
    23    21    22   ar
    24    22    23   ar
    25    23    24    1
    26    23    25   ar
    27    25    26   ar
    28    26    17   ar
    29     7     1   ar
    30    26    20   ar
    31    11     5    1
    32     4    14    1
    33     4    15    1
    34     8    16    1
@<TRIPOS>MOLECULE
*****
 31 34 0 0 0
SMALL
GASTEIGER

@<TRIPOS>ATOM
      1 C         141.6264  142.4650  163.1437 C.ar    1  UNL1        0.2553
      2 N         142.7592  142.0514  162.2519 N.ar    1  UNL1       -0.1957
      3 C         142.8852  142.6395  160.8777 C.ar    1  UNL1        0.1276
      4 N         144.0181  142.2259  159.9859 N.pl3   1  UNL1       -0.3427
      5 C         141.8783  143.6413  160.3954 C.ar    1  UNL1        0.0484
      6 C         140.7454  144.0550  161.2873 C.ar    1  UNL1        0.1363
      7 N         140.6194  143.4669  162.6614 N.ar    1  UNL1       -0.1951
      8 N         139.9117  145.0558  160.5436 N.am    1  UNL1       -0.2692
      9 C         140.5293  145.2607  159.1920 C.2     1  UNL1        0.2302
     10 O         140.0206  146.1786  158.1203 O.2     1  UNL1       -0.2744
     11 C         141.7447  144.3865  159.1005 C.3     1  UNL1        0.0932
     12 C         141.8707  144.9746  157.7264 C.3     1  UNL1        0.0137
     13 C         142.9865  143.6352  158.7217 C.3     1  UNL1        0.0137
     14 H         144.6790  141.5684  160.3024 H       1  UNL1        0.1437
     15 H         144.1008  142.6119  159.0840 H       1  UNL1        0.1437
     16 H         139.1014  145.5002  160.8829 H       1  UNL1        0.1563
     17 C         141.9587  141.2868  166.8270 C.ar    1  UNL1        0.0805
     18 N         142.4817  142.0408  165.6404 N.ar    1  UNL1       -0.1670
     19 N         141.5004  141.8769  164.5179 N.ar    1  UNL1       -0.1967
     20 C         140.3709  141.0217  165.0107 C.ar    1  UNL1        0.0871
     21 C         139.1211  140.5280  164.3442 C.ar    1  UNL1        0.0202
     22 C         138.1545  139.6695  165.1050 C.ar    1  UNL1        0.0129
     23 C         138.4378  139.3048  166.5321 C.ar    1  UNL1        0.0578
     24 CL        137.4711  138.4463  167.2929 Cl      1  UNL1       -0.0822
     25 C         139.6876  139.7985  167.1985 C.ar    1  UNL1        0.0141
     26 C         140.6541  140.6570  166.4378 C.ar    1  UNL1        0.0339
     27 C         142.6235  141.1812  168.1675 C.3     1  UNL1        0.0476
     28 C         143.1130  142.4177  168.8614 C.3     1  UNL1        0.0064
     29 C         142.3018  143.0294  169.9650 C.3     1  UNL1        0.0004
     30 C         139.7891  142.4370  170.2563 C.3     1  UNL1        0.0000
     31 C         140.8555  143.3568  169.7397 C.3     1  UNL1        0.0000
@<TRIPOS>BOND
     1    30    31    1
     2    31    29    1
     3    29    28    1
     4    28    27    1
     5    27    17    1
     6    17    18   ar
     7    18    19   ar
     8    19     1    1
     9     1     2   ar
    10     2     3   ar
    11     3     4    1
    12     3     5   ar
    13     5     6   ar
    14     6     7   ar
    15     6     8    1
    16     8     9   am
    17     9    10    2
    18     9    11    1
    19    11    12    1
    20    11    13    1
    21    19    20   ar
    22    20    21   ar
    23    21    22   ar
    24    22    23   ar
    25    23    24    1
    26    23    25   ar
    27    25    26   ar
    28    26    17   ar
    29     7     1   ar
    30    26    20   ar
    31    11     5    1
    32     4    14    1
    33     4    15    1
    34     8    16    1
@<TRIPOS>MOLECULE
*****
 31 34 0 0 0
SMALL
GASTEIGER

@<TRIPOS>ATOM
      1 C         141.6768  141.9819  163.1397 C.ar    1  UNL1        0.2553
      2 N         141.5688  143.3070  162.4454 N.ar    1  UNL1       -0.1957
      3 C         142.1248  143.4769  161.0627 C.ar    1  UNL1        0.1276
      4 N         142.0167  144.8021  160.3684 N.pl3   1  UNL1       -0.3427
      5 C         142.7889  142.3215  160.3742 C.ar    1  UNL1        0.0484
      6 C         142.8970  140.9963  161.0684 C.ar    1  UNL1        0.1363
      7 N         142.3409  140.8264  162.4512 N.ar    1  UNL1       -0.1951
      8 N         143.6003  140.0456  160.1457 N.am    1  UNL1       -0.2692
      9 C         143.9269  140.7832  158.8811 C.2     1  UNL1        0.2302
     10 O         144.6313  140.2142  157.6854 O.2     1  UNL1       -0.2744
     11 C         143.4254  142.1898  159.0224 C.3     1  UNL1        0.0932
     12 C         143.9814  142.3597  157.6396 C.3     1  UNL1        0.0137
     13 C         143.0402  143.6319  158.8745 C.3     1  UNL1        0.0137
     14 H         141.5808  145.5605  160.8202 H       1  UNL1        0.1437
     15 H         142.3816  144.9136  159.4608 H       1  UNL1        0.1437
     16 H         143.8106  139.1029  160.3366 H       1  UNL1        0.1563
     17 C         140.6432  142.1575  166.8768 C.ar    1  UNL1        0.0805
     18 N         141.4056  142.6941  165.7018 N.ar    1  UNL1       -0.1670
     19 N         141.1208  141.8120  164.5225 N.ar    1  UNL1       -0.1967
     20 C         140.1823  140.7303  164.9686 C.ar    1  UNL1        0.0871
     21 C         139.5584  139.5784  164.2379 C.ar    1  UNL1        0.0202
     22 C         138.6394  138.6401  164.9623 C.ar    1  UNL1        0.0129
     23 C         138.3442  138.8536  166.4174 C.ar    1  UNL1        0.0578
     24 CL        137.4250  137.9152  167.1418 Cl      1  UNL1       -0.0822
     25 C         138.9681  140.0054  167.1481 C.ar    1  UNL1        0.0141
     26 C         139.8871  140.9438  166.4237 C.ar    1  UNL1        0.0339
     27 C         140.6377  142.7334  168.2618 C.3     1  UNL1        0.0476
     28 C         141.7674  142.4351  169.2026 C.3     1  UNL1        0.0064
     29 C         142.8227  141.4416  168.8163 C.3     1  UNL1        0.0004
     30 C         141.4622  139.5495  169.9646 C.3     1  UNL1        0.0000
     31 C         142.6608  139.9957  169.1809 C.3     1  UNL1        0.0000
@<TRIPOS>BOND
     1    30    31    1
     2    31    29    1
     3    29    28    1
     4    28    27    1
     5    27    17    1
     6    17    18   ar
     7    18    19   ar
     8    19     1    1
     9     1     2   ar
    10     2     3   ar
    11     3     4    1
    12     3     5   ar
    13     5     6   ar
    14     6     7   ar
    15     6     8    1
    16     8     9   am
    17     9    10    2
    18     9    11    1
    19    11    12    1
    20    11    13    1
    21    19    20   ar
    22    20    21   ar
    23    21    22   ar
    24    22    23   ar
    25    23    24    1
    26    23    25   ar
    27    25    26   ar
    28    26    17   ar
    29     7     1   ar
    30    26    20   ar
    31    11     5    1
    32     4    14    1
    33     4    15    1
    34     8    16    1
@<TRIPOS>MOLECULE
*****
 31 34 0 0 0
SMALL
GASTEIGER

@<TRIPOS>ATOM
      1 C         141.1179  145.0066  159.7849 C.ar    1  UNL1        0.2553
      2 N         142.1887  144.2397  159.0672 N.ar    1  UNL1       -0.1957
      3 C         142.3807  144.4224  157.5908 C.ar    1  UNL1        0.1276
      4 N         143.4515  143.6554  156.8732 N.pl3   1  UNL1       -0.3427
      5 C         141.5020  145.3723  156.8321 C.ar    1  UNL1        0.0484
      6 C         140.4313  146.1393  157.5497 C.ar    1  UNL1        0.1363
      7 N         140.2392  145.9565  159.0261 N.ar    1  UNL1       -0.1951
      8 N         139.7233  146.9983  156.5443 N.am    1  UNL1       -0.2692
      9 C         140.3566  146.7621  155.2051 C.2     1  UNL1        0.2302
     10 O         139.9602  147.4160  153.9148 O.2     1  UNL1       -0.2744
     11 C         141.4559  145.7572  155.3831 C.3     1  UNL1        0.0932
     12 C         141.6480  145.9400  153.9067 C.3     1  UNL1        0.0137
     13 C         142.5953  144.7905  155.2523 C.3     1  UNL1        0.0137
     14 H         144.0283  143.0320  157.3711 H       1  UNL1        0.1437
     15 H         143.5776  143.7754  155.9042 H       1  UNL1        0.1437
     16 H         138.9745  147.6097  156.7305 H       1  UNL1        0.1563
     17 C         139.9136  144.7532  163.4660 C.ar    1  UNL1        0.0805
     18 N         139.6533  145.0572  162.0204 N.ar    1  UNL1       -0.1670
     19 N         140.9258  144.8238  161.2613 N.ar    1  UNL1       -0.1967
     20 C         141.9726  144.3756  162.2377 C.ar    1  UNL1        0.0871
     21 C         143.4145  144.0015  162.0621 C.ar    1  UNL1        0.0202
     22 C         144.2308  143.5838  163.2491 C.ar    1  UNL1        0.0129
     23 C         143.6052  143.5401  164.6117 C.ar    1  UNL1        0.0578
     24 CL        144.4217  143.1224  165.7988 Cl      1  UNL1       -0.0822
     25 C         142.1633  143.9142  164.7873 C.ar    1  UNL1        0.0141
     26 C         141.3470  144.3319  163.6003 C.ar    1  UNL1        0.0339
     27 C         138.9158  144.8529  164.5815 C.3     1  UNL1        0.0476
     28 C         137.7559  143.9032  164.6374 C.3     1  UNL1        0.0064
     29 C         137.8544  142.5595  163.9780 C.3     1  UNL1        0.0004
     30 C         139.4987  141.3731  165.6022 C.3     1  UNL1        0.0000
     31 C         138.2416  141.3552  164.7840 C.3     1  UNL1        0.0000
@<TRIPOS>BOND
     1    30    31    1
     2    31    29    1
     3    29    28    1
     4    28    27    1
     5    27    17    1
     6    17    18   ar
     7    18    19   ar
     8    19     1    1
     9     1     2   ar
    10     2     3   ar
    11     3     4    1
    12     3     5   ar
    13     5     6   ar
    14     6     7   ar
    15     6     8    1
    16     8     9   am
    17     9    10    2
    18     9    11    1
    19    11    12    1
    20    11    13    1
    21    19    20   ar
    22    20    21   ar
    23    21    22   ar
    24    22    23   ar
    25    23    24    1
    26    23    25   ar
    27    25    26   ar
    28    26    17   ar
    29     7     1   ar
    30    26    20   ar
    31    11     5    1
    32     4    14    1
    33     4    15    1
    34     8    16    1
@<TRIPOS>MOLECULE
*****
 31 34 0 0 0
SMALL
GASTEIGER

@<TRIPOS>ATOM
      1 C         140.3330  140.0590  165.9295 C.ar    1  UNL1        0.2553
      2 N         139.4509  139.7069  167.0904 N.ar    1  UNL1       -0.1957
      3 C         139.7786  140.2157  168.4629 C.ar    1  UNL1        0.1276
      4 N         138.8964  139.8635  169.6238 N.pl3   1  UNL1       -0.3427
      5 C         140.9886  141.0766  168.6745 C.ar    1  UNL1        0.0484
      6 C         141.8708  141.4288  167.5136 C.ar    1  UNL1        0.1363
      7 N         141.5430  140.9200  166.1411 N.ar    1  UNL1       -0.1951
      8 N         142.9877  142.2897  168.0246 N.am    1  UNL1       -0.2692
      9 C         142.7959  142.4696  169.5014 C.2     1  UNL1        0.2302
     10 O         143.6837  143.2604  170.4159 O.2     1  UNL1       -0.2744
     11 C         141.5603  141.7199  169.9030 C.3     1  UNL1        0.0932
     12 C         141.8881  142.2286  171.2755 C.3     1  UNL1        0.0137
     13 C         140.3933  141.0765  170.5915 C.3     1  UNL1        0.0137
     14 H         138.1023  139.2984  169.4849 H       1  UNL1        0.1437
     15 H         139.1115  140.1974  170.5246 H       1  UNL1        0.1437
     16 H         143.7185  142.6699  167.4855 H       1  UNL1        0.1563
     17 C         138.7753  138.9148  162.5636 C.ar    1  UNL1        0.0805
     18 N         138.6384  139.4898  163.9422 N.ar    1  UNL1       -0.1670
     19 N         140.0053  139.5503  164.5570 N.ar    1  UNL1       -0.1967
     20 C         140.9869  139.0126  163.5583 C.ar    1  UNL1        0.0871
     21 C         142.4748  138.8299  163.6116 C.ar    1  UNL1        0.0202
     22 C         143.2024  138.2545  162.4329 C.ar    1  UNL1        0.0129
     23 C         142.4422  137.8618  161.2009 C.ar    1  UNL1        0.0578
     24 CL        143.1699  137.2863  160.0222 Cl      1  UNL1       -0.0822
     25 C         140.9544  138.0445  161.1476 C.ar    1  UNL1        0.0141
     26 C         140.2267  138.6199  162.3263 C.ar    1  UNL1        0.0339
     27 C         137.6570  138.6766  161.5926 C.3     1  UNL1        0.0476
     28 C         137.2489  139.7595  160.6382 C.3     1  UNL1        0.0064
     29 C         138.2925  140.5119  159.8669 C.3     1  UNL1        0.0004
     30 C         138.0949  142.4946  161.5341 C.3     1  UNL1        0.0000
     31 C         138.7217  141.8759  160.3199 C.3     1  UNL1        0.0000
@<TRIPOS>BOND
     1    30    31    1
     2    31    29    1
     3    29    28    1
     4    28    27    1
     5    27    17    1
     6    17    18   ar
     7    18    19   ar
     8    19     1    1
     9     1     2   ar
    10     2     3   ar
    11     3     4    1
    12     3     5   ar
    13     5     6   ar
    14     6     7   ar
    15     6     8    1
    16     8     9   am
    17     9    10    2
    18     9    11    1
    19    11    12    1
    20    11    13    1
    21    19    20   ar
    22    20    21   ar
    23    21    22   ar
    24    22    23   ar
    25    23    24    1
    26    23    25   ar
    27    25    26   ar
    28    26    17   ar
    29     7     1   ar
    30    26    20   ar
    31    11     5    1
    32     4    14    1
    33     4    15    1
    34     8    16    1
@<TRIPOS>MOLECULE
*****
 31 34 0 0 0
SMALL
GASTEIGER

@<TRIPOS>ATOM
      1 C         142.1992  144.6771  159.6522 C.ar    1  UNL1        0.2553
      2 N         143.0598  143.7948  158.7974 N.ar    1  UNL1       -0.1957
      3 C         143.0141  143.9225  157.3035 C.ar    1  UNL1        0.1276
      4 N         143.8747  143.0402  156.4487 N.pl3   1  UNL1       -0.3427
      5 C         142.1077  144.9324  156.6645 C.ar    1  UNL1        0.0484
      6 C         141.2470  145.8148  157.5193 C.ar    1  UNL1        0.1363
      7 N         141.2927  145.6871  159.0132 N.ar    1  UNL1       -0.1951
      8 N         140.4582  146.7121  156.6123 N.am    1  UNL1       -0.2692
      9 C         140.8314  146.3844  155.1969 C.2     1  UNL1        0.2302
     10 O         140.2817  147.0412  153.9656 O.2     1  UNL1       -0.2744
     11 C         141.8508  145.2845  155.2292 C.3     1  UNL1        0.0932
     12 C         141.8051  145.4122  153.7353 C.3     1  UNL1        0.0137
     13 C         142.8607  144.2113  154.9491 C.3     1  UNL1        0.0137
     14 H         144.4697  142.3773  156.8681 H       1  UNL1        0.1437
     15 H         143.8447  143.1240  155.4682 H       1  UNL1        0.1437
     16 H         139.8095  147.3961  156.8962 H       1  UNL1        0.1563
     17 C         143.0577  144.2521  163.4135 C.ar    1  UNL1        0.0805
     18 N         143.4732  144.3111  161.9734 N.ar    1  UNL1       -0.1670
     19 N         142.2449  144.5494  161.1461 N.ar    1  UNL1       -0.1967
     20 C         141.0703  144.6376  162.0748 C.ar    1  UNL1        0.0871
     21 C         139.6082  144.8615  161.8255 C.ar    1  UNL1        0.0202
     22 C         138.6485  144.9017  162.9776 C.ar    1  UNL1        0.0129
     23 C         139.1509  144.7179  164.3790 C.ar    1  UNL1        0.0578
     24 CL        138.1911  144.7581  165.5311 Cl      1  UNL1       -0.0822
     25 C         140.6130  144.4940  164.6283 C.ar    1  UNL1        0.0141
     26 C         141.5727  144.4539  163.4762 C.ar    1  UNL1        0.0339
     27 C         143.9675  144.0302  164.5853 C.3     1  UNL1        0.0476
     28 C         144.4574  142.6485  164.9034 C.3     1  UNL1        0.0064
     29 C         145.4884  141.9985  164.0292 C.3     1  UNL1        0.0004
     30 C         144.4934  139.6050  163.8532 C.3     1  UNL1        0.0000
     31 C         145.1238  140.8008  163.2030 C.3     1  UNL1        0.0000
@<TRIPOS>BOND
     1    30    31    1
     2    31    29    1
     3    29    28    1
     4    28    27    1
     5    27    17    1
     6    17    18   ar
     7    18    19   ar
     8    19     1    1
     9     1     2   ar
    10     2     3   ar
    11     3     4    1
    12     3     5   ar
    13     5     6   ar
    14     6     7   ar
    15     6     8    1
    16     8     9   am
    17     9    10    2
    18     9    11    1
    19    11    12    1
    20    11    13    1
    21    19    20   ar
    22    20    21   ar
    23    21    22   ar
    24    22    23   ar
    25    23    24    1
    26    23    25   ar
    27    25    26   ar
    28    26    17   ar
    29     7     1   ar
    30    26    20   ar
    31    11     5    1
    32     4    14    1
    33     4    15    1
    34     8    16    1
@<TRIPOS>MOLECULE
*****
 31 34 0 0 0
SMALL
GASTEIGER

@<TRIPOS>ATOM
      1 C         141.0484  145.0425  159.5839 C.ar    1  UNL1        0.2553
      2 N         140.1688  145.9877  158.8206 N.ar    1  UNL1       -0.1957
      3 C         140.3678  146.1718  157.3453 C.ar    1  UNL1        0.1276
      4 N         139.4881  147.1170  156.5820 N.pl3   1  UNL1       -0.3427
      5 C         141.4466  145.4107  156.6333 C.ar    1  UNL1        0.0484
      6 C         142.3263  144.4655  157.3966 C.ar    1  UNL1        0.1363
      7 N         142.1272  144.2813  158.8719 N.ar    1  UNL1       -0.1951
      8 N         143.2998  143.8565  156.4315 N.am    1  UNL1       -0.2692
      9 C         143.0217  144.4254  155.0717 C.2     1  UNL1        0.2302
     10 O         143.7595  144.0923  153.8089 O.2     1  UNL1       -0.2744
     11 C         141.8764  145.3859  155.1965 C.3     1  UNL1        0.0932
     12 C         142.0755  145.5700  153.7212 C.3     1  UNL1        0.0137
     13 C         140.7727  146.3849  155.0128 C.3     1  UNL1        0.0137
     14 H         138.7801  147.6166  157.0493 H       1  UNL1        0.1437
     15 H         139.6188  147.2379  155.6137 H       1  UNL1        0.1437
     16 H         143.9985  143.1989  156.6518 H       1  UNL1        0.1563
     17 C         139.8227  144.7707  163.2566 C.ar    1  UNL1        0.0805
     18 N         139.5667  145.0667  161.8086 N.ar    1  UNL1       -0.1670
     19 N         140.8493  144.8584  161.0592 N.ar    1  UNL1       -0.1967
     20 C         141.8980  144.4336  162.0441 C.ar    1  UNL1        0.0871
     21 C         143.3486  144.0892  161.8797 C.ar    1  UNL1        0.0202
     22 C         144.1647  143.6906  163.0734 C.ar    1  UNL1        0.0129
     23 C         143.5302  143.6364  164.4315 C.ar    1  UNL1        0.0578
     24 CL        144.3464  143.2378  165.6253 Cl      1  UNL1       -0.0822
     25 C         142.0796  143.9808  164.5959 C.ar    1  UNL1        0.0141
     26 C         141.2634  144.3794  163.4022 C.ar    1  UNL1        0.0339
     27 C         138.8148  144.8516  164.3647 C.3     1  UNL1        0.0476
     28 C         137.9028  143.6918  164.6353 C.3     1  UNL1        0.0064
     29 C         138.1332  142.3798  163.9456 C.3     1  UNL1        0.0004
     30 C         139.5506  141.5103  165.9418 C.3     1  UNL1        0.0000
     31 C         139.1173  141.3985  164.5101 C.3     1  UNL1        0.0000
@<TRIPOS>BOND
     1    30    31    1
     2    31    29    1
     3    29    28    1
     4    28    27    1
     5    27    17    1
     6    17    18   ar
     7    18    19   ar
     8    19     1    1
     9     1     2   ar
    10     2     3   ar
    11     3     4    1
    12     3     5   ar
    13     5     6   ar
    14     6     7   ar
    15     6     8    1
    16     8     9   am
    17     9    10    2
    18     9    11    1
    19    11    12    1
    20    11    13    1
    21    19    20   ar
    22    20    21   ar
    23    21    22   ar
    24    22    23   ar
    25    23    24    1
    26    23    25   ar
    27    25    26   ar
    28    26    17   ar
    29     7     1   ar
    30    26    20   ar
    31    11     5    1
    32     4    14    1
    33     4    15    1
    34     8    16    1
@<TRIPOS>MOLECULE
*****
 31 34 0 0 0
SMALL
GASTEIGER

@<TRIPOS>ATOM
      1 C         141.3543  141.5448  165.4846 C.ar    1  UNL1        0.2553
      2 N         142.1645  140.3648  165.9331 N.ar    1  UNL1       -0.1957
      3 C         142.3179  140.0729  167.3964 C.ar    1  UNL1        0.1276
      4 N         143.1281  138.8929  167.8449 N.pl3   1  UNL1       -0.3427
      5 C         141.6610  140.9610  168.4112 C.ar    1  UNL1        0.0484
      6 C         140.8508  142.1410  167.9628 C.ar    1  UNL1        0.1363
      7 N         140.6974  142.4329  166.4995 N.ar    1  UNL1       -0.1951
      8 N         140.3240  142.8330  169.1849 N.am    1  UNL1       -0.2692
      9 C         140.8087  142.0807  170.3887 C.2     1  UNL1        0.2302
     10 O         140.5180  142.4250  171.8193 O.2     1  UNL1       -0.2744
     11 C         141.6350  140.9238  169.9105 C.3     1  UNL1        0.0932
     12 C         141.7884  140.6318  171.3738 C.3     1  UNL1        0.0137
     13 C         142.4933  139.7058  169.7383 C.3     1  UNL1        0.0137
     14 H         143.5592  138.3100  167.1789 H       1  UNL1        0.1437
     15 H         143.2287  138.7013  168.8053 H       1  UNL1        0.1437
     16 H         139.7593  143.6394  169.1951 H       1  UNL1        0.1563
     17 C         141.5503  142.7536  161.8014 C.ar    1  UNL1        0.0805
     18 N         142.0580  142.7650  163.2128 N.ar    1  UNL1       -0.1670
     19 N         141.2009  141.8367  164.0213 N.ar    1  UNL1       -0.1967
     20 C         140.1635  141.2515  163.1095 C.ar    1  UNL1        0.0871
     21 C         139.0501  140.2758  163.3513 C.ar    1  UNL1        0.0202
     22 C         138.1527  139.8668  162.2212 C.ar    1  UNL1        0.0129
     23 C         138.3686  140.4335  160.8492 C.ar    1  UNL1        0.0578
     24 CL        137.4711  140.0245  159.7190 Cl      1  UNL1       -0.0822
     25 C         139.4820  141.4092  160.6074 C.ar    1  UNL1        0.0141
     26 C         140.3794  141.8181  161.7376 C.ar    1  UNL1        0.0339
     27 C         142.1143  143.5395  160.6551 C.3     1  UNL1        0.0476
     28 C         141.5047  144.8569  160.2769 C.3     1  UNL1        0.0064
     29 C         140.1214  145.2042  160.7418 C.3     1  UNL1        0.0004
     30 C         139.2122  145.1249  163.1742 C.3     1  UNL1        0.0000
     31 C         139.9212  145.8603  162.0757 C.3     1  UNL1        0.0000
@<TRIPOS>BOND
     1    30    31    1
     2    31    29    1
     3    29    28    1
     4    28    27    1
     5    27    17    1
     6    17    18   ar
     7    18    19   ar
     8    19     1    1
     9     1     2   ar
    10     2     3   ar
    11     3     4    1
    12     3     5   ar
    13     5     6   ar
    14     6     7   ar
    15     6     8    1
    16     8     9   am
    17     9    10    2
    18     9    11    1
    19    11    12    1
    20    11    13    1
    21    19    20   ar
    22    20    21   ar
    23    21    22   ar
    24    22    23   ar
    25    23    24    1
    26    23    25   ar
    27    25    26   ar
    28    26    17   ar
    29     7     1   ar
    30    26    20   ar
    31    11     5    1
    32     4    14    1
    33     4    15    1
    34     8    16    1
