@<TRIPOS>MOLECULE
*****
 31 34 0 0 0
SMALL
GASTEIGER

@<TRIPOS>ATOM
      1 N         143.4459  138.5936  166.9415 N.pl3   1  UNL1       -0.2819
      2 H         144.1042  137.9994  167.3691 H       1  UNL1        0.1551
      3 C         141.8878  137.8608  163.3658 C.ar    1  UNL1        0.1430
      4 C         142.0679  137.8891  164.8547 C.ar    1  UNL1        0.0713
      5 C         143.2659  138.5653  165.4525 C.ar    1  UNL1        0.1363
      6 N         144.2838  139.2133  164.5616 N.ar    1  UNL1       -0.2288
      7 C         144.1038  139.1850  163.0727 C.ar    1  UNL1        0.1034
      8 C         142.9058  138.5088  162.4748 C.ar    1  UNL1        0.0563
      9 C         142.7257  138.4805  160.9859 C.ar    1  UNL1        0.0441
     10 C         142.2329  139.6138  160.1357 C.ar    1  UNL1        0.1218
     11 N         142.2095  139.1477  158.7102 N.ar    1  UNL1       -0.1676
     12 N         142.6879  137.7263  158.6793 N.ar    1  UNL1       -0.2473
     13 C         142.8234  136.8680  157.4567 C.3     1  UNL1        0.1538
     14 C         143.0069  137.3140  160.0858 C.ar    1  UNL1        0.0968
     15 C         139.3113  137.6856  163.0819 C.3     1  UNL1        0.2525
     16 O         140.6898  137.1846  162.7679 O.3     1  UNL1       -0.4713
     17 C         142.6230  139.5272  167.7789 C.ar    1  UNL1        0.1558
     18 C         142.3630  139.2090  169.2215 C.ar    1  UNL1        0.1342
     19 N         141.5400  140.1426  170.0589 N.ar    1  UNL1       -0.2263
     20 C         140.9771  141.3944  169.4536 C.ar    1  UNL1        0.2025
     21 C         141.2372  141.7125  168.0110 C.ar    1  UNL1        0.2543
     22 N         142.0601  140.7789  167.1736 N.ar    1  UNL1       -0.1931
     23 C         140.1542  142.3280  170.2909 C.1     1  UNL1        0.1246
     24 N         139.3312  143.2615  171.1283 N.1     1  UNL1       -0.1891
     25 O         140.6742  142.9642  167.4057 O.3     1  UNL1       -0.4610
     26 C         139.7939  142.8812  166.1941 C.3     1  UNL1        0.1849
     27 C         139.3000  144.0416  165.3818 C.3     1  UNL1        0.0623
     28 C         138.4537  143.5008  164.2677 C.3     1  UNL1        0.0760
     29 N         138.4245  142.0061  164.3914 N.3     1  UNL1       -0.2684
     30 C         137.6951  141.0604  163.4839 C.3     1  UNL1        0.0897
     31 C         139.2528  141.6232  165.5820 C.3     1  UNL1        0.1163
@<TRIPOS>BOND
     1    15    16    1
     2    16     3    1
     3     3     4   ar
     4     4     5   ar
     5     5     1    1
     6     1    17    1
     7    17    18   ar
     8    18    19   ar
     9    19    20   ar
    10    20    23    1
    11    23    24    3
    12    20    21   ar
    13    21    25    1
    14    26    25    1
    15    26    27    1
    16    27    28    1
    17    28    29    1
    18    29    30    1
    19    29    31    1
    20    21    22   ar
    21     5     6   ar
    22     6     7   ar
    23     7     8   ar
    24     8     9    1
    25     9    10   ar
    26    10    11   ar
    27    11    12   ar
    28    12    13    1
    29    12    14   ar
    30     8     3   ar
    31    14     9   ar
    32    22    17   ar
    33    31    26    1
    34     1     2    1
@<TRIPOS>MOLECULE
*****
 31 34 0 0 0
SMALL
GASTEIGER

@<TRIPOS>ATOM
      1 N         138.8059  138.0635  163.3515 N.pl3   1  UNL1       -0.2819
      2 H         138.4001  137.1669  163.3781 H       1  UNL1        0.1551
      3 C         141.8971  138.8030  165.7280 C.ar    1  UNL1        0.1430
      4 C         141.0909  138.3098  164.5632 C.ar    1  UNL1        0.0713
      5 C         139.6121  138.5568  164.5163 C.ar    1  UNL1        0.1363
      6 N         138.9395  139.2969  165.6342 N.ar    1  UNL1       -0.2288
      7 C         139.7457  139.7901  166.7990 C.ar    1  UNL1        0.1034
      8 C         141.2245  139.5432  166.8458 C.ar    1  UNL1        0.0563
      9 C         142.0307  140.0365  168.0107 C.ar    1  UNL1        0.0441
     10 C         142.3341  139.2669  169.2620 C.ar    1  UNL1        0.1218
     11 N         143.1659  140.1407  170.1533 N.ar    1  UNL1       -0.1676
     12 N         143.3766  141.4504  169.4529 N.ar    1  UNL1       -0.2473
     13 C         144.1527  142.6192  169.9836 C.3     1  UNL1        0.1538
     14 C         142.6750  141.3859  168.1287 C.ar    1  UNL1        0.0968
     15 C         144.2862  139.2710  164.8209 C.3     1  UNL1        0.2525
     16 O         143.3759  138.5561  165.7748 O.3     1  UNL1       -0.4713
     17 C         138.6180  138.9363  162.1461 C.ar    1  UNL1        0.1558
     18 C         138.7689  138.3579  160.7704 C.ar    1  UNL1        0.1342
     19 N         138.5810  139.2307  159.5650 N.ar    1  UNL1       -0.2263
     20 C         138.2422  140.6820  159.7354 C.ar    1  UNL1        0.2025
     21 C         138.0912  141.2604  161.1111 C.ar    1  UNL1        0.2543
     22 N         138.2791  140.3876  162.3165 N.ar    1  UNL1       -0.1931
     23 C         138.0543  141.5548  158.5301 C.1     1  UNL1        0.1246
     24 N         137.8664  142.4277  157.3247 N.1     1  UNL1       -0.1891
     25 O         137.7524  142.7117  161.2816 O.3     1  UNL1       -0.4610
     26 C         138.5004  143.5443  162.2802 C.3     1  UNL1        0.1849
     27 C         137.9288  144.1499  163.5278 C.3     1  UNL1        0.0623
     28 C         139.0265  144.8974  164.2252 C.3     1  UNL1        0.0760
     29 N         140.2766  144.7536  163.4086 N.3     1  UNL1       -0.2684
     30 C         141.6165  145.3427  163.7365 C.3     1  UNL1        0.0897
     31 C         139.9514  143.9174  162.2065 C.3     1  UNL1        0.1163
@<TRIPOS>BOND
     1    15    16    1
     2    16     3    1
     3     3     4   ar
     4     4     5   ar
     5     5     1    1
     6     1    17    1
     7    17    18   ar
     8    18    19   ar
     9    19    20   ar
    10    20    23    1
    11    23    24    3
    12    20    21   ar
    13    21    25    1
    14    26    25    1
    15    26    27    1
    16    27    28    1
    17    28    29    1
    18    29    30    1
    19    29    31    1
    20    21    22   ar
    21     5     6   ar
    22     6     7   ar
    23     7     8   ar
    24     8     9    1
    25     9    10   ar
    26    10    11   ar
    27    11    12   ar
    28    12    13    1
    29    12    14   ar
    30     8     3   ar
    31    14     9   ar
    32    22    17   ar
    33    31    26    1
    34     1     2    1
@<TRIPOS>MOLECULE
*****
 31 34 0 0 0
SMALL
GASTEIGER

@<TRIPOS>ATOM
      1 N         138.5211  139.0157  166.6263 N.pl3   1  UNL1       -0.2819
      2 H         137.9572  138.3672  167.1065 H       1  UNL1        0.1551
      3 C         141.3937  141.6422  167.4007 C.ar    1  UNL1        0.1430
      4 C         140.4148  140.7944  166.6438 C.ar    1  UNL1        0.0713
      5 C         139.5001  139.8635  167.3832 C.ar    1  UNL1        0.1363
      6 N         139.5644  139.7803  168.8795 N.ar    1  UNL1       -0.2288
      7 C         140.5433  140.6281  169.6364 C.ar    1  UNL1        0.1034
      8 C         141.4580  141.5590  168.8970 C.ar    1  UNL1        0.0563
      9 C         142.4370  142.4068  169.6539 C.ar    1  UNL1        0.0441
     10 C         142.0931  143.4840  170.6395 C.ar    1  UNL1        0.1218
     11 N         143.3752  144.0692  171.1529 N.ar    1  UNL1       -0.1676
     12 N         144.5117  143.3536  170.4845 N.ar    1  UNL1       -0.2473
     13 C         145.9716  143.6189  170.7041 C.3     1  UNL1        0.1538
     14 C         143.9318  142.3263  169.5581 C.ar    1  UNL1        0.0968
     15 C         143.3758  142.0202  165.7641 C.3     1  UNL1        0.2525
     16 O         142.3084  142.5731  166.6613 O.3     1  UNL1       -0.4713
     17 C         138.4014  139.1561  165.1376 C.ar    1  UNL1        0.1558
     18 C         138.8780  138.0531  164.2396 C.ar    1  UNL1        0.1342
     19 N         138.7583  138.1935  162.7510 N.ar    1  UNL1       -0.2263
     20 C         138.1620  139.4368  162.1604 C.ar    1  UNL1        0.2025
     21 C         137.6855  140.5397  163.0585 C.ar    1  UNL1        0.2543
     22 N         137.8052  140.3993  164.5471 N.ar    1  UNL1       -0.1931
     23 C         138.0423  139.5772  160.6718 C.1     1  UNL1        0.1246
     24 N         137.9226  139.7176  159.1832 N.1     1  UNL1       -0.1891
     25 O         137.0892  141.7830  162.4679 O.3     1  UNL1       -0.4610
     26 C         137.9329  143.0115  162.2975 C.3     1  UNL1        0.1849
     27 C         138.0004  144.1730  163.2444 C.3     1  UNL1        0.0623
     28 C         138.9664  145.1736  162.6824 C.3     1  UNL1        0.0760
     29 N         139.4958  144.6304  161.3882 N.3     1  UNL1       -0.2684
     30 C         140.4895  145.3051  160.4897 C.3     1  UNL1        0.0897
     31 C         138.8570  143.2943  161.1504 C.3     1  UNL1        0.1163
@<TRIPOS>BOND
     1    15    16    1
     2    16     3    1
     3     3     4   ar
     4     4     5   ar
     5     5     1    1
     6     1    17    1
     7    17    18   ar
     8    18    19   ar
     9    19    20   ar
    10    20    23    1
    11    23    24    3
    12    20    21   ar
    13    21    25    1
    14    26    25    1
    15    26    27    1
    16    27    28    1
    17    28    29    1
    18    29    30    1
    19    29    31    1
    20    21    22   ar
    21     5     6   ar
    22     6     7   ar
    23     7     8   ar
    24     8     9    1
    25     9    10   ar
    26    10    11   ar
    27    11    12   ar
    28    12    13    1
    29    12    14   ar
    30     8     3   ar
    31    14     9   ar
    32    22    17   ar
    33    31    26    1
    34     1     2    1
@<TRIPOS>MOLECULE
*****
 31 34 0 0 0
SMALL
GASTEIGER

@<TRIPOS>ATOM
      1 N         143.2869  138.6270  167.1191 N.pl3   1  UNL1       -0.2819
      2 H         143.8968  137.9930  167.5609 H       1  UNL1        0.1551
      3 C         143.9737  139.5309  163.3163 C.ar    1  UNL1        0.1430
      4 C         144.0853  139.5159  164.8120 C.ar    1  UNL1        0.0713
      5 C         143.1752  138.6420  165.6233 C.ar    1  UNL1        0.1363
      6 N         142.1536  137.7831  164.9388 N.ar    1  UNL1       -0.2288
      7 C         142.0420  137.7981  163.4431 C.ar    1  UNL1        0.1034
      8 C         142.9521  138.6720  162.6318 C.ar    1  UNL1        0.0563
      9 C         142.8404  138.6870  161.1360 C.ar    1  UNL1        0.0441
     10 C         143.2391  137.5756  160.2109 C.ar    1  UNL1        0.1218
     11 N         142.9556  138.0177  158.8059 N.ar    1  UNL1       -0.1676
     12 N         142.3817  139.4025  158.8626 N.ar    1  UNL1       -0.2473
     13 C         141.9540  140.2285  157.6858 C.3     1  UNL1        0.1538
     14 C         142.3105  139.8161  160.3027 C.ar    1  UNL1        0.0968
     15 C         145.5085  141.6185  163.1266 C.3     1  UNL1        0.2525
     16 O         144.8837  140.4048  162.5050 O.3     1  UNL1       -0.4713
     17 C         142.4691  139.5781  167.9417 C.ar    1  UNL1        0.1558
     18 C         142.3095  139.3490  169.4156 C.ar    1  UNL1        0.1342
     19 N         141.4918  140.3001  170.2382 N.ar    1  UNL1       -0.2263
     20 C         140.8337  141.4804  169.5870 C.ar    1  UNL1        0.2025
     21 C         140.9934  141.7095  168.1133 C.ar    1  UNL1        0.2543
     22 N         141.8111  140.7584  167.2906 N.ar    1  UNL1       -0.1931
     23 C         140.0160  142.4315  170.4096 C.1     1  UNL1        0.1246
     24 N         139.1983  143.3826  171.2323 N.1     1  UNL1       -0.1891
     25 O         140.3353  142.8898  167.4621 O.3     1  UNL1       -0.4610
     26 C         140.1983  142.9430  165.9693 C.3     1  UNL1        0.1849
     27 C         141.2066  143.5039  165.0108 C.3     1  UNL1        0.0623
     28 C         140.6604  143.3522  163.6221 C.3     1  UNL1        0.0760
     29 N         139.3145  142.6975  163.7223 N.3     1  UNL1       -0.2684
     30 C         138.4125  142.3558  162.5735 C.3     1  UNL1        0.0897
     31 C         139.0289  142.4446  165.1730 C.3     1  UNL1        0.1163
@<TRIPOS>BOND
     1    15    16    1
     2    16     3    1
     3     3     4   ar
     4     4     5   ar
     5     5     1    1
     6     1    17    1
     7    17    18   ar
     8    18    19   ar
     9    19    20   ar
    10    20    23    1
    11    23    24    3
    12    20    21   ar
    13    21    25    1
    14    26    25    1
    15    26    27    1
    16    27    28    1
    17    28    29    1
    18    29    30    1
    19    29    31    1
    20    21    22   ar
    21     5     6   ar
    22     6     7   ar
    23     7     8   ar
    24     8     9    1
    25     9    10   ar
    26    10    11   ar
    27    11    12   ar
    28    12    13    1
    29    12    14   ar
    30     8     3   ar
    31    14     9   ar
    32    22    17   ar
    33    31    26    1
    34     1     2    1
@<TRIPOS>MOLECULE
*****
 31 34 0 0 0
SMALL
GASTEIGER

@<TRIPOS>ATOM
      1 N         138.7358  139.0973  166.9518 N.pl3   1  UNL1       -0.2819
      2 H         138.2131  138.4010  167.4115 H       1  UNL1        0.1551
      3 C         137.8791  140.5685  163.3669 C.ar    1  UNL1        0.1430
      4 C         137.9648  140.4280  164.8578 C.ar    1  UNL1        0.0713
      5 C         138.6502  139.2377  165.4608 C.ar    1  UNL1        0.1363
      6 N         139.2499  138.1881  164.5729 N.ar    1  UNL1       -0.2288
      7 C         139.1643  138.3286  163.0820 C.ar    1  UNL1        0.1034
      8 C         138.4789  139.5188  162.4790 C.ar    1  UNL1        0.0563
      9 C         138.3933  139.6593  160.9880 C.ar    1  UNL1        0.0441
     10 C         137.1563  139.9786  160.2020 C.ar    1  UNL1        0.1218
     11 N         137.5282  140.0218  158.7495 N.ar    1  UNL1       -0.1676
     12 N         138.9952  139.7291  158.6377 N.ar    1  UNL1       -0.2473
     13 C         139.7882  139.6708  157.3659 C.3     1  UNL1        0.1538
     14 C         139.5298  139.5051  160.0212 C.ar    1  UNL1        0.0968
     15 C         137.9347  143.0541  162.6128 C.3     1  UNL1        0.2525
     16 O         137.1938  141.7587  162.7638 O.3     1  UNL1       -0.4713
     17 C         139.6176  140.0177  167.7424 C.ar    1  UNL1        0.1558
     18 C         139.2801  140.3385  169.1684 C.ar    1  UNL1        0.1342
     19 N         140.1620  141.2589  169.9590 N.ar    1  UNL1       -0.2263
     20 C         141.3814  141.8586  169.3237 C.ar    1  UNL1        0.2025
     21 C         141.7189  141.5377  167.8978 C.ar    1  UNL1        0.2543
     22 N         140.8370  140.6173  167.1072 N.ar    1  UNL1       -0.1931
     23 C         142.2633  142.7790  170.1143 C.1     1  UNL1        0.1246
     24 N         143.1452  143.6994  170.9049 N.1     1  UNL1       -0.1891
     25 O         142.9383  142.1374  167.2625 O.3     1  UNL1       -0.4610
     26 C         143.0921  142.1200  165.7705 C.3     1  UNL1        0.1849
     27 C         142.4010  143.0336  164.8022 C.3     1  UNL1        0.0623
     28 C         142.8458  142.6642  163.4181 C.3     1  UNL1        0.0760
     29 N         143.8119  141.5222  163.5311 N.3     1  UNL1       -0.2684
     30 C         144.5042  140.8369  162.3904 C.3     1  UNL1        0.0897
     31 C         143.9641  141.1859  164.9850 C.3     1  UNL1        0.1163
@<TRIPOS>BOND
     1    15    16    1
     2    16     3    1
     3     3     4   ar
     4     4     5   ar
     5     5     1    1
     6     1    17    1
     7    17    18   ar
     8    18    19   ar
     9    19    20   ar
    10    20    23    1
    11    23    24    3
    12    20    21   ar
    13    21    25    1
    14    26    25    1
    15    26    27    1
    16    27    28    1
    17    28    29    1
    18    29    30    1
    19    29    31    1
    20    21    22   ar
    21     5     6   ar
    22     6     7   ar
    23     7     8   ar
    24     8     9    1
    25     9    10   ar
    26    10    11   ar
    27    11    12   ar
    28    12    13    1
    29    12    14   ar
    30     8     3   ar
    31    14     9   ar
    32    22    17   ar
    33    31    26    1
    34     1     2    1
@<TRIPOS>MOLECULE
*****
 31 34 0 0 0
SMALL
GASTEIGER

@<TRIPOS>ATOM
      1 N         138.7325  137.8884  164.1693 N.pl3   1  UNL1       -0.2819
      2 H         138.6527  136.9083  164.1204 H       1  UNL1        0.1551
      3 C         138.0241  140.9365  161.7286 C.ar    1  UNL1        0.1430
      4 C         138.1130  140.1132  162.9793 C.ar    1  UNL1        0.0713
      5 C         138.6437  138.7116  162.9185 C.ar    1  UNL1        0.1363
      6 N         139.0855  138.1331  161.6070 N.ar    1  UNL1       -0.2288
      7 C         138.9967  138.9563  160.3563 C.ar    1  UNL1        0.1034
      8 C         138.4660  140.3580  160.4171 C.ar    1  UNL1        0.0563
      9 C         138.3771  141.1812  159.1662 C.ar    1  UNL1        0.0441
     10 C         139.0867  142.4781  158.9120 C.ar    1  UNL1        0.1218
     11 N         138.7112  142.9504  157.5387 N.ar    1  UNL1       -0.1676
     12 N         137.7695  141.9455  156.9442 N.ar    1  UNL1       -0.2473
     13 C         137.1442  142.0208  155.5829 C.3     1  UNL1        0.1538
     14 C         137.5631  140.8521  157.9501 C.ar    1  UNL1        0.0968
     15 C         137.7477  143.1845  163.0014 C.3     1  UNL1        0.2525
     16 O         137.4934  142.3381  161.7894 O.3     1  UNL1       -0.4713
     17 C         138.9429  138.5584  165.4948 C.ar    1  UNL1        0.1558
     18 C         137.9307  138.3906  166.5891 C.ar    1  UNL1        0.1342
     19 N         138.1412  139.0607  167.9145 N.ar    1  UNL1       -0.2263
     20 C         139.3638  139.8984  168.1456 C.ar    1  UNL1        0.2025
     21 C         140.3760  140.0661  167.0514 C.ar    1  UNL1        0.2543
     22 N         140.1655  139.3961  165.7260 N.ar    1  UNL1       -0.1931
     23 C         139.5743  140.5685  169.4711 C.1     1  UNL1        0.1246
     24 N         139.7847  141.2385  170.7965 N.1     1  UNL1       -0.1891
     25 O         141.5986  140.9039  167.2825 O.3     1  UNL1       -0.4610
     26 C         141.9893  141.9523  166.2834 C.3     1  UNL1        0.1849
     27 C         143.3777  142.2182  165.7816 C.3     1  UNL1        0.0623
     28 C         143.3067  143.3491  164.7988 C.3     1  UNL1        0.0760
     29 N         141.8744  143.7821  164.6932 N.3     1  UNL1       -0.2684
     30 C         141.3486  144.8848  163.8228 C.3     1  UNL1        0.0897
     31 C         141.0602  142.9188  165.6107 C.3     1  UNL1        0.1163
@<TRIPOS>BOND
     1    15    16    1
     2    16     3    1
     3     3     4   ar
     4     4     5   ar
     5     5     1    1
     6     1    17    1
     7    17    18   ar
     8    18    19   ar
     9    19    20   ar
    10    20    23    1
    11    23    24    3
    12    20    21   ar
    13    21    25    1
    14    26    25    1
    15    26    27    1
    16    27    28    1
    17    28    29    1
    18    29    30    1
    19    29    31    1
    20    21    22   ar
    21     5     6   ar
    22     6     7   ar
    23     7     8   ar
    24     8     9    1
    25     9    10   ar
    26    10    11   ar
    27    11    12   ar
    28    12    13    1
    29    12    14   ar
    30     8     3   ar
    31    14     9   ar
    32    22    17   ar
    33    31    26    1
    34     1     2    1
@<TRIPOS>MOLECULE
*****
 31 34 0 0 0
SMALL
GASTEIGER

@<TRIPOS>ATOM
      1 N         138.7657  137.4789  164.2742 N.pl3   1  UNL1       -0.2819
      2 H         138.0924  136.7625  164.2217 H       1  UNL1        0.1551
      3 C         141.9869  138.0157  162.0191 C.ar    1  UNL1        0.1430
      4 C         141.1230  137.7099  163.2065 C.ar    1  UNL1        0.0713
      5 C         139.6296  137.7848  163.0867 C.ar    1  UNL1        0.1363
      6 N         139.0003  138.1656  161.7795 N.ar    1  UNL1       -0.2288
      7 C         139.8643  138.4715  160.5921 C.ar    1  UNL1        0.1034
      8 C         141.3576  138.3965  160.7119 C.ar    1  UNL1        0.0563
      9 C         142.2216  138.7024  159.5244 C.ar    1  UNL1        0.0441
     10 C         142.4977  137.7803  158.3740 C.ar    1  UNL1        0.1218
     11 N         143.4079  138.4921  157.4175 N.ar    1  UNL1       -0.1676
     12 N         143.6943  139.8542  157.9768 N.ar    1  UNL1       -0.2473
     13 C         144.5616  140.9022  157.3448 C.3     1  UNL1        0.1538
     14 C         142.9611  139.9841  159.2789 C.ar    1  UNL1        0.0968
     15 C         144.2291  139.0163  162.8685 C.3     1  UNL1        0.2525
     16 O         143.4803  137.9408  162.1389 O.3     1  UNL1       -0.4713
     17 C         138.9275  138.2646  165.5417 C.ar    1  UNL1        0.1558
     18 C         137.8843  138.1780  166.6161 C.ar    1  UNL1        0.1342
     19 N         138.0461  138.9637  167.8836 N.ar    1  UNL1       -0.2263
     20 C         139.2511  139.8360  168.0766 C.ar    1  UNL1        0.2025
     21 C         140.2941  139.9227  167.0022 C.ar    1  UNL1        0.2543
     22 N         140.1323  139.1370  165.7347 N.ar    1  UNL1       -0.1931
     23 C         139.4129  140.6217  169.3441 C.1     1  UNL1        0.1246
     24 N         139.5747  141.4074  170.6116 N.1     1  UNL1       -0.1891
     25 O         141.4990  140.7951  167.1951 O.3     1  UNL1       -0.4610
     26 C         141.8332  141.8476  166.1801 C.3     1  UNL1        0.1849
     27 C         143.1706  142.0558  165.5333 C.3     1  UNL1        0.0623
     28 C         143.0527  143.2137  164.5871 C.3     1  UNL1        0.0760
     29 N         141.6424  143.7211  164.6491 N.3     1  UNL1       -0.2684
     30 C         141.0839  144.8710  163.8643 C.3     1  UNL1        0.0897
     31 C         140.8888  142.8769  165.6336 C.3     1  UNL1        0.1163
@<TRIPOS>BOND
     1    15    16    1
     2    16     3    1
     3     3     4   ar
     4     4     5   ar
     5     5     1    1
     6     1    17    1
     7    17    18   ar
     8    18    19   ar
     9    19    20   ar
    10    20    23    1
    11    23    24    3
    12    20    21   ar
    13    21    25    1
    14    26    25    1
    15    26    27    1
    16    27    28    1
    17    28    29    1
    18    29    30    1
    19    29    31    1
    20    21    22   ar
    21     5     6   ar
    22     6     7   ar
    23     7     8   ar
    24     8     9    1
    25     9    10   ar
    26    10    11   ar
    27    11    12   ar
    28    12    13    1
    29    12    14   ar
    30     8     3   ar
    31    14     9   ar
    32    22    17   ar
    33    31    26    1
    34     1     2    1
@<TRIPOS>MOLECULE
*****
 31 34 0 0 0
SMALL
GASTEIGER

@<TRIPOS>ATOM
      1 N         143.4698  142.7585  165.7404 N.pl3   1  UNL1       -0.2819
      2 H         144.4205  142.9693  165.8852 H       1  UNL1        0.1551
      3 C         140.9020  144.2436  163.1039 C.ar    1  UNL1        0.1430
      4 C         141.5545  143.9056  164.4116 C.ar    1  UNL1        0.0713
      5 C         142.8174  143.0965  164.4326 C.ar    1  UNL1        0.1363
      6 N         143.4278  142.6254  163.1460 N.ar    1  UNL1       -0.2288
      7 C         142.7753  142.9634  161.8384 C.ar    1  UNL1        0.1034
      8 C         141.5124  143.7725  161.8173 C.ar    1  UNL1        0.0563
      9 C         140.8600  144.1105  160.5096 C.ar    1  UNL1        0.0441
     10 C         139.7500  143.3437  159.8538 C.ar    1  UNL1        0.1218
     11 N         139.4070  144.0339  158.5670 N.ar    1  UNL1       -0.1676
     12 N         140.3050  145.2274  158.4274 N.ar    1  UNL1       -0.2473
     13 C         140.3050  146.2023  157.2875 C.3     1  UNL1        0.1538
     14 C         141.2030  145.2747  159.6280 C.ar    1  UNL1        0.0968
     15 C         138.3756  144.4859  163.6592 C.3     1  UNL1        0.2525
     16 O         139.6391  145.0527  163.0829 O.3     1  UNL1       -0.4713
     17 C         142.6737  142.0994  166.8275 C.ar    1  UNL1        0.1558
     18 C         143.0569  142.2990  168.2640 C.ar    1  UNL1        0.1342
     19 N         142.2608  141.6400  169.3511 N.ar    1  UNL1       -0.2263
     20 C         141.0815  140.7813  169.0017 C.ar    1  UNL1        0.2025
     21 C         140.6983  140.5817  167.5653 C.ar    1  UNL1        0.2543
     22 N         141.4945  141.2408  166.4782 N.ar    1  UNL1       -0.1931
     23 C         140.2853  140.1222  170.0888 C.1     1  UNL1        0.1246
     24 N         139.4892  139.4631  171.1759 N.1     1  UNL1       -0.1891
     25 O         139.5190  139.7230  167.2159 O.3     1  UNL1       -0.4610
     26 C         139.0365  139.6527  165.7974 C.3     1  UNL1        0.1849
     27 C         138.3406  140.7496  165.0474 C.3     1  UNL1        0.0623
     28 C         138.0391  140.2480  163.6663 C.3     1  UNL1        0.0760
     29 N         138.5487  138.8410  163.5628 N.3     1  UNL1       -0.2684
     30 C         138.4578  137.9570  162.3543 C.3     1  UNL1        0.0897
     31 C         139.1651  138.4731  164.8799 C.3     1  UNL1        0.1163
@<TRIPOS>BOND
     1    15    16    1
     2    16     3    1
     3     3     4   ar
     4     4     5   ar
     5     5     1    1
     6     1    17    1
     7    17    18   ar
     8    18    19   ar
     9    19    20   ar
    10    20    23    1
    11    23    24    3
    12    20    21   ar
    13    21    25    1
    14    26    25    1
    15    26    27    1
    16    27    28    1
    17    28    29    1
    18    29    30    1
    19    29    31    1
    20    21    22   ar
    21     5     6   ar
    22     6     7   ar
    23     7     8   ar
    24     8     9    1
    25     9    10   ar
    26    10    11   ar
    27    11    12   ar
    28    12    13    1
    29    12    14   ar
    30     8     3   ar
    31    14     9   ar
    32    22    17   ar
    33    31    26    1
    34     1     2    1
@<TRIPOS>MOLECULE
*****
 31 34 0 0 0
SMALL
GASTEIGER

@<TRIPOS>ATOM
      1 N         138.8274  137.5958  164.1710 N.pl3   1  UNL1       -0.2819
      2 H         138.1489  136.8861  164.0992 H       1  UNL1        0.1551
      3 C         140.0821  139.2000  160.7648 C.ar    1  UNL1        0.1430
      4 C         139.2112  138.8733  161.9414 C.ar    1  UNL1        0.0713
      5 C         139.6985  137.9225  162.9943 C.ar    1  UNL1        0.1363
      6 N         141.0567  137.2983  162.8704 N.ar    1  UNL1       -0.2288
      7 C         141.9277  137.6249  161.6937 C.ar    1  UNL1        0.1034
      8 C         141.4404  138.5758  160.6409 C.ar    1  UNL1        0.0563
      9 C         142.3115  138.9024  159.4641 C.ar    1  UNL1        0.0441
     10 C         142.5126  138.0438  158.2507 C.ar    1  UNL1        0.1218
     11 N         143.4597  138.7558  157.3309 N.ar    1  UNL1       -0.1676
     12 N         143.8440  140.0545  157.9759 N.ar    1  UNL1       -0.2473
     13 C         144.7745  141.0820  157.4030 C.3     1  UNL1        0.1538
     14 C         143.1343  140.1451  159.2942 C.ar    1  UNL1        0.0968
     15 C         138.1340  140.2153  159.3778 C.3     1  UNL1        0.2525
     16 O         139.5948  140.1508  159.7119 O.3     1  UNL1       -0.4713
     17 C         138.9902  138.3506  165.4570 C.ar    1  UNL1        0.1558
     18 C         137.9380  138.2538  166.5218 C.ar    1  UNL1        0.1342
     19 N         138.1008  139.0085  167.8078 N.ar    1  UNL1       -0.2263
     20 C         139.3158  139.8600  168.0291 C.ar    1  UNL1        0.2025
     21 C         140.3679  139.9567  166.9644 C.ar    1  UNL1        0.2543
     22 N         140.2051  139.2020  165.6783 N.ar    1  UNL1       -0.1931
     23 C         139.4786  140.6147  169.3151 C.1     1  UNL1        0.1246
     24 N         139.6414  141.3695  170.6012 N.1     1  UNL1       -0.1891
     25 O         141.5829  140.8082  167.1857 O.3     1  UNL1       -0.4610
     26 C         141.9276  141.8918  166.2074 C.3     1  UNL1        0.1849
     27 C         143.2995  142.2088  165.6901 C.3     1  UNL1        0.0623
     28 C         143.1808  143.3615  164.7377 C.3     1  UNL1        0.0760
     29 N         141.7355  143.7570  164.6664 N.3     1  UNL1       -0.2684
     30 C         141.1649  144.8660  163.8331 C.3     1  UNL1        0.0897
     31 C         140.9611  142.8486  165.5748 C.3     1  UNL1        0.1163
@<TRIPOS>BOND
     1    15    16    1
     2    16     3    1
     3     3     4   ar
     4     4     5   ar
     5     5     1    1
     6     1    17    1
     7    17    18   ar
     8    18    19   ar
     9    19    20   ar
    10    20    23    1
    11    23    24    3
    12    20    21   ar
    13    21    25    1
    14    26    25    1
    15    26    27    1
    16    27    28    1
    17    28    29    1
    18    29    30    1
    19    29    31    1
    20    21    22   ar
    21     5     6   ar
    22     6     7   ar
    23     7     8   ar
    24     8     9    1
    25     9    10   ar
    26    10    11   ar
    27    11    12   ar
    28    12    13    1
    29    12    14   ar
    30     8     3   ar
    31    14     9   ar
    32    22    17   ar
    33    31    26    1
    34     1     2    1
