@<TRIPOS>MOLECULE
*****
 30 31 0 0 0
SMALL
GASTEIGER

@<TRIPOS>ATOM
      1 C         141.0608  145.1927  162.0274 C.3     1  UNL1        0.1697
      2 O         141.8637  145.1163  160.7626 O.3     1  UNL1       -0.3793
      3 H         141.3789  145.5531  160.0450 H       1  UNL1        0.2106
      4 C         139.7249  145.8749  162.0276 C.3     1  UNL1        0.1021
      5 N         138.4856  145.0968  162.3574 N.3     1  UNL1       -0.2951
      6 H         138.2958  145.2511  163.3477 H       1  UNL1        0.1233
      7 C         138.4499  143.6137  162.1356 C.3     1  UNL1        0.0734
      8 C         137.7370  142.7262  163.1124 C.3     1  UNL1        0.0434
      9 C         140.2288  137.5460  164.8316 C.3     1  UNL1        0.0307
     10 C         139.6058  138.8410  164.4018 C.ar    1  UNL1       -0.0258
     11 C         139.9881  139.4579  163.0891 C.ar    1  UNL1       -0.0049
     12 C         139.3652  140.7530  162.6593 C.ar    1  UNL1       -0.0046
     13 C         138.3599  141.4312  163.5422 C.ar    1  UNL1       -0.0211
     14 C         137.9776  140.8143  164.8549 C.ar    1  UNL1       -0.0088
     15 C         138.6006  139.5192  165.2847 C.ar    1  UNL1       -0.0261
     16 C         138.2182  138.9023  166.5975 C.3     1  UNL1        0.0307
     17 C         141.5939  144.5871  163.2919 C.3     1  UNL1        0.2358
     18 O         140.6816  144.3716  164.4630 O.3     1  UNL1       -0.4728
     19 C         140.9207  143.2237  165.3986 C.ar    1  UNL1        0.1388
     20 C         141.8979  142.1470  165.0304 C.ar    1  UNL1        0.0382
     21 C         142.1369  140.9992  165.9660 C.ar    1  UNL1        0.0190
     22 C         141.3989  140.9283  167.2700 C.ar    1  UNL1        0.0646
     23 C         140.4217  142.0051  167.6382 C.ar    1  UNL1        0.0190
     24 C         140.1827  143.1528  166.7026 C.ar    1  UNL1        0.0382
     25 N         141.6380  139.7804  168.2056 N.pl3   1  UNL1       -0.2187
     26 H         141.6528  138.8586  167.8602 H       1  UNL1        0.1734
     27 S         141.8545  140.0371  169.6675 S.O2    1  UNL1        0.0558
     28 C         142.0710  140.2938  171.1294 C.3     1  UNL1        0.1996
     29 O         143.2301  140.5572  169.3725 O.2     1  UNL1       -0.1544
     30 O         140.4789  139.5170  169.9626 O.2     1  UNL1       -0.1544
@<TRIPOS>BOND
     1     9    10    1
     2    10    11   ar
     3    11    12   ar
     4    12    13   ar
     5    13     8    1
     6     8     7    1
     7     7     5    1
     8     5     4    1
     9     4     1    1
    10     1     2    1
    11     1    17    1
    12    17    18    1
    13    18    19    1
    14    19    20   ar
    15    20    21   ar
    16    21    22   ar
    17    22    25    1
    18    25    27    1
    19    27    28    1
    20    27    29    2
    21    27    30    2
    22    22    23   ar
    23    23    24   ar
    24    13    14   ar
    25    14    15   ar
    26    15    16    1
    27    15    10   ar
    28    24    19   ar
    29     5     6    1
    30     2     3    1
    31    25    26    1
@<TRIPOS>MOLECULE
*****
 30 31 0 0 0
SMALL
GASTEIGER

@<TRIPOS>ATOM
      1 C         138.1874  143.5028  162.8801 C.3     1  UNL1        0.1697
      2 O         138.0607  143.5092  161.3854 O.3     1  UNL1       -0.3793
      3 H         137.3970  142.8558  161.1144 H       1  UNL1        0.2106
      4 C         137.3468  142.5695  163.7000 C.3     1  UNL1        0.1021
      5 N         136.9291  141.2441  163.1351 N.3     1  UNL1       -0.2951
      6 H         136.1530  140.9115  163.7074 H       1  UNL1        0.1233
      7 C         137.9181  140.1195  163.0510 C.3     1  UNL1        0.0734
      8 C         138.7285  139.7417  164.2554 C.3     1  UNL1        0.0434
      9 C         144.7121  139.4940  163.8881 C.3     1  UNL1        0.0307
     10 C         143.2162  139.5559  163.9799 C.ar    1  UNL1       -0.0258
     11 C         142.4202  140.1566  162.8595 C.ar    1  UNL1       -0.0049
     12 C         140.9243  140.2186  162.9513 C.ar    1  UNL1       -0.0046
     13 C         140.2244  139.6797  164.1635 C.ar    1  UNL1       -0.0211
     14 C         141.0203  139.0790  165.2840 C.ar    1  UNL1       -0.0088
     15 C         142.5162  139.0170  165.1922 C.ar    1  UNL1       -0.0261
     16 C         143.3122  138.4162  166.3127 C.3     1  UNL1        0.0307
     17 C         139.1546  144.4297  163.5547 C.3     1  UNL1        0.2358
     18 O         140.6144  144.0874  163.5998 O.3     1  UNL1       -0.4728
     19 C         141.1889  143.4099  164.8085 C.ar    1  UNL1        0.1388
     20 C         142.6690  143.1900  164.9125 C.ar    1  UNL1        0.0382
     21 C         143.2434  142.5126  166.1212 C.ar    1  UNL1        0.0190
     22 C         142.3378  142.0550  167.2259 C.ar    1  UNL1        0.0646
     23 C         140.8577  142.2749  167.1220 C.ar    1  UNL1        0.0190
     24 C         140.2832  142.9523  165.9132 C.ar    1  UNL1        0.0382
     25 N         142.9123  141.3775  168.4347 N.pl3   1  UNL1       -0.2187
     26 H         143.6532  140.7370  168.3344 H       1  UNL1        0.1734
     27 S         142.3580  141.6760  169.7962 S.O2    1  UNL1        0.0558
     28 C         141.8038  141.9745  171.1576 C.3     1  UNL1        0.1996
     29 O         143.0127  143.0252  169.7669 O.2     1  UNL1       -0.1544
     30 O         141.7034  140.3268  169.8254 O.2     1  UNL1       -0.1544
@<TRIPOS>BOND
     1     9    10    1
     2    10    11   ar
     3    11    12   ar
     4    12    13   ar
     5    13     8    1
     6     8     7    1
     7     7     5    1
     8     5     4    1
     9     4     1    1
    10     1     2    1
    11     1    17    1
    12    17    18    1
    13    18    19    1
    14    19    20   ar
    15    20    21   ar
    16    21    22   ar
    17    22    25    1
    18    25    27    1
    19    27    28    1
    20    27    29    2
    21    27    30    2
    22    22    23   ar
    23    23    24   ar
    24    13    14   ar
    25    14    15   ar
    26    15    16    1
    27    15    10   ar
    28    24    19   ar
    29     5     6    1
    30     2     3    1
    31    25    26    1
@<TRIPOS>MOLECULE
*****
 30 31 0 0 0
SMALL
GASTEIGER

@<TRIPOS>ATOM
      1 C         137.9938  141.6506  162.7311 C.3     1  UNL1        0.1697
      2 O         136.5476  141.4648  163.0836 O.3     1  UNL1       -0.3793
      3 H         136.0293  142.1999  162.7204 H       1  UNL1        0.2106
      4 C         138.4233  142.8446  161.9311 C.3     1  UNL1        0.1021
      5 N         138.2094  144.2269  162.4730 N.3     1  UNL1       -0.2951
      6 H         137.9981  144.8264  161.6753 H       1  UNL1        0.1233
      7 C         139.2997  144.9056  163.2480 C.3     1  UNL1        0.0734
      8 C         140.5773  145.2923  162.5637 C.3     1  UNL1        0.0434
      9 C         145.5382  142.0235  163.4025 C.3     1  UNL1        0.0307
     10 C         144.2980  142.8407  163.1928 C.ar    1  UNL1       -0.0258
     11 C         143.5006  142.6836  161.9321 C.ar    1  UNL1       -0.0049
     12 C         142.2604  143.5008  161.7224 C.ar    1  UNL1       -0.0046
     13 C         141.8175  144.4751  162.7734 C.ar    1  UNL1       -0.0211
     14 C         142.6149  144.6321  164.0341 C.ar    1  UNL1       -0.0088
     15 C         143.8551  143.8149  164.2438 C.ar    1  UNL1       -0.0261
     16 C         144.6525  143.9720  165.5046 C.3     1  UNL1        0.0307
     17 C         139.0103  140.6425  163.1786 C.3     1  UNL1        0.2358
     18 O         140.4451  141.0471  163.3448 O.3     1  UNL1       -0.4728
     19 C         140.9839  141.3560  164.7103 C.ar    1  UNL1        0.1388
     20 C         140.2664  142.3301  165.5969 C.ar    1  UNL1        0.0382
     21 C         140.8052  142.6390  166.9623 C.ar    1  UNL1        0.0190
     22 C         142.0615  141.9738  167.4410 C.ar    1  UNL1        0.0646
     23 C         142.7790  140.9997  166.5543 C.ar    1  UNL1        0.0190
     24 C         142.2402  140.6908  165.1889 C.ar    1  UNL1        0.0382
     25 N         142.6003  142.2827  168.8064 N.pl3   1  UNL1       -0.2187
     26 H         143.5287  142.5934  168.9105 H       1  UNL1        0.1734
     27 S         141.7246  142.1184  170.0131 S.O2    1  UNL1        0.0558
     28 C         140.8490  141.9540  171.2197 C.3     1  UNL1        0.1996
     29 O         141.7796  143.5978  170.2544 O.2     1  UNL1       -0.1544
     30 O         141.6697  140.6390  169.7717 O.2     1  UNL1       -0.1544
@<TRIPOS>BOND
     1     9    10    1
     2    10    11   ar
     3    11    12   ar
     4    12    13   ar
     5    13     8    1
     6     8     7    1
     7     7     5    1
     8     5     4    1
     9     4     1    1
    10     1     2    1
    11     1    17    1
    12    17    18    1
    13    18    19    1
    14    19    20   ar
    15    20    21   ar
    16    21    22   ar
    17    22    25    1
    18    25    27    1
    19    27    28    1
    20    27    29    2
    21    27    30    2
    22    22    23   ar
    23    23    24   ar
    24    13    14   ar
    25    14    15   ar
    26    15    16    1
    27    15    10   ar
    28    24    19   ar
    29     5     6    1
    30     2     3    1
    31    25    26    1
@<TRIPOS>MOLECULE
*****
 30 31 0 0 0
SMALL
GASTEIGER

@<TRIPOS>ATOM
      1 C         137.8145  140.9984  162.2231 C.3     1  UNL1        0.1697
      2 O         136.5942  141.3467  163.0229 O.3     1  UNL1       -0.3793
      3 H         135.8591  140.7718  162.7581 H       1  UNL1        0.2106
      4 C         137.7541  139.9011  161.2022 C.3     1  UNL1        0.1021
      5 N         138.0191  138.4820  161.6098 N.3     1  UNL1       -0.2951
      6 H         137.1473  137.9696  161.4763 H       1  UNL1        0.1233
      7 C         138.4921  138.1769  163.0002 C.3     1  UNL1        0.0734
      8 C         139.7627  137.4073  163.2082 C.3     1  UNL1        0.0434
      9 C         144.8522  140.3114  164.4980 C.3     1  UNL1        0.0307
     10 C         143.5798  139.5854  164.1756 C.ar    1  UNL1       -0.0258
     11 C         142.8277  139.9119  162.9196 C.ar    1  UNL1       -0.0049
     12 C         141.5553  139.1859  162.5971 C.ar    1  UNL1       -0.0046
     13 C         141.0351  138.1333  163.5306 C.ar    1  UNL1       -0.0211
     14 C         141.7872  137.8068  164.7866 C.ar    1  UNL1       -0.0088
     15 C         143.0596  138.5328  165.1091 C.ar    1  UNL1       -0.0261
     16 C         143.8118  138.2063  166.3652 C.3     1  UNL1        0.0307
     17 C         139.0951  141.7473  162.4442 C.3     1  UNL1        0.2358
     18 O         139.3060  142.5132  163.7166 O.3     1  UNL1       -0.4728
     19 C         139.8281  141.8126  164.9359 C.ar    1  UNL1        0.1388
     20 C         139.0329  140.7065  165.5636 C.ar    1  UNL1        0.0382
     21 C         139.5551  140.0060  166.7829 C.ar    1  UNL1        0.0190
     22 C         140.8725  140.4116  167.3744 C.ar    1  UNL1        0.0646
     23 C         141.6677  141.5178  166.7467 C.ar    1  UNL1        0.0190
     24 C         141.1455  142.2183  165.5275 C.ar    1  UNL1        0.0382
     25 N         141.3946  139.7111  168.5937 N.pl3   1  UNL1       -0.2187
     26 H         141.5601  138.7408  168.5710 H       1  UNL1        0.1734
     27 S         141.6646  140.4887  169.8476 S.O2    1  UNL1        0.0558
     28 C         141.9347  141.2664  171.1015 C.3     1  UNL1        0.1996
     29 O         143.1358  140.2492  169.6794 O.2     1  UNL1       -0.1544
     30 O         140.1935  140.7283  170.0158 O.2     1  UNL1       -0.1544
@<TRIPOS>BOND
     1     9    10    1
     2    10    11   ar
     3    11    12   ar
     4    12    13   ar
     5    13     8    1
     6     8     7    1
     7     7     5    1
     8     5     4    1
     9     4     1    1
    10     1     2    1
    11     1    17    1
    12    17    18    1
    13    18    19    1
    14    19    20   ar
    15    20    21   ar
    16    21    22   ar
    17    22    25    1
    18    25    27    1
    19    27    28    1
    20    27    29    2
    21    27    30    2
    22    22    23   ar
    23    23    24   ar
    24    13    14   ar
    25    14    15   ar
    26    15    16    1
    27    15    10   ar
    28    24    19   ar
    29     5     6    1
    30     2     3    1
    31    25    26    1
@<TRIPOS>MOLECULE
*****
 30 31 0 0 0
SMALL
GASTEIGER

@<TRIPOS>ATOM
      1 C         140.3444  145.4424  162.3963 C.3     1  UNL1        0.1697
      2 O         140.0659  146.9019  162.1906 O.3     1  UNL1       -0.3793
      3 H         140.5395  147.2136  161.4036 H       1  UNL1        0.2106
      4 C         141.2416  144.7086  161.4442 C.3     1  UNL1        0.1021
      5 N         142.7175  144.6428  161.7040 N.3     1  UNL1       -0.2951
      6 H         143.1641  145.2563  161.0224 H       1  UNL1        0.1233
      7 C         143.4331  143.3263  161.6360 C.3     1  UNL1        0.0734
      8 C         142.6646  142.0465  161.7828 C.3     1  UNL1        0.0434
      9 C         143.0069  138.9102  166.8864 C.3     1  UNL1        0.0307
     10 C         142.9213  139.6942  165.6105 C.ar    1  UNL1       -0.0258
     11 C         143.4998  141.0764  165.5393 C.ar    1  UNL1       -0.0049
     12 C         143.4142  141.8604  164.2634 C.ar    1  UNL1       -0.0046
     13 C         142.7502  141.2624  163.0587 C.ar    1  UNL1       -0.0211
     14 C         142.1717  139.8803  163.1299 C.ar    1  UNL1       -0.0088
     15 C         142.2573  139.0962  164.4058 C.ar    1  UNL1       -0.0261
     16 C         141.6788  137.7140  164.4769 C.3     1  UNL1        0.0307
     17 C         139.7257  144.7167  163.5541 C.3     1  UNL1        0.2358
     18 O         139.6793  143.2174  163.5613 O.3     1  UNL1       -0.4728
     19 C         139.7629  142.4706  164.8596 C.ar    1  UNL1        0.1388
     20 C         139.1772  141.0944  164.9722 C.ar    1  UNL1        0.0382
     21 C         139.2608  140.3477  166.2704 C.ar    1  UNL1        0.0190
     22 C         139.9302  140.9773  167.4560 C.ar    1  UNL1        0.0646
     23 C         140.5160  142.3535  167.3433 C.ar    1  UNL1        0.0190
     24 C         140.4323  143.1002  166.0451 C.ar    1  UNL1        0.0382
     25 N         140.0139  140.2305  168.7543 N.pl3   1  UNL1       -0.2187
     26 H         139.7921  139.2718  168.7859 H       1  UNL1        0.1734
     27 S         140.4354  140.9444  170.0043 S.O2    1  UNL1        0.0558
     28 C         140.8568  141.6583  171.2544 C.3     1  UNL1        0.1996
     29 O         139.0059  141.3055  170.2801 O.2     1  UNL1       -0.1544
     30 O         141.8649  140.5833  169.7285 O.2     1  UNL1       -0.1544
@<TRIPOS>BOND
     1     9    10    1
     2    10    11   ar
     3    11    12   ar
     4    12    13   ar
     5    13     8    1
     6     8     7    1
     7     7     5    1
     8     5     4    1
     9     4     1    1
    10     1     2    1
    11     1    17    1
    12    17    18    1
    13    18    19    1
    14    19    20   ar
    15    20    21   ar
    16    21    22   ar
    17    22    25    1
    18    25    27    1
    19    27    28    1
    20    27    29    2
    21    27    30    2
    22    22    23   ar
    23    23    24   ar
    24    13    14   ar
    25    14    15   ar
    26    15    16    1
    27    15    10   ar
    28    24    19   ar
    29     5     6    1
    30     2     3    1
    31    25    26    1
@<TRIPOS>MOLECULE
*****
 30 31 0 0 0
SMALL
GASTEIGER

@<TRIPOS>ATOM
      1 C         137.8735  143.1560  162.4552 C.3     1  UNL1        0.1697
      2 O         137.5976  144.6252  162.3311 O.3     1  UNL1       -0.3793
      3 H         137.9315  144.9461  161.4788 H       1  UNL1        0.2106
      4 C         138.5703  142.4273  161.3446 C.3     1  UNL1        0.1021
      5 N         138.0618  141.0917  160.8890 N.3     1  UNL1       -0.2951
      6 H         137.4417  140.7471  161.6218 H       1  UNL1        0.1233
      7 C         139.0281  139.9856  160.5838 C.3     1  UNL1        0.0734
      8 C         139.0521  138.7536  161.4390 C.3     1  UNL1        0.0434
      9 C         143.0821  138.2448  165.8550 C.3     1  UNL1        0.0307
     10 C         142.0746  138.3720  164.7510 C.ar    1  UNL1       -0.0258
     11 C         140.9730  137.3623  164.6210 C.ar    1  UNL1       -0.0049
     12 C         139.9655  137.4895  163.5170 C.ar    1  UNL1       -0.0046
     13 C         140.0596  138.6264  162.5430 C.ar    1  UNL1       -0.0211
     14 C         141.1612  139.6360  162.6730 C.ar    1  UNL1       -0.0088
     15 C         142.1687  139.5089  163.7770 C.ar    1  UNL1       -0.0261
     16 C         143.2704  140.5186  163.9070 C.3     1  UNL1        0.0307
     17 C         137.4527  142.4155  163.6899 C.3     1  UNL1        0.2358
     18 O         137.9764  141.0344  163.9513 O.3     1  UNL1       -0.4728
     19 C         138.7014  140.7369  165.2303 C.ar    1  UNL1        0.1388
     20 C         139.8399  141.6100  165.6677 C.ar    1  UNL1        0.0382
     21 C         140.5649  141.3125  166.9466 C.ar    1  UNL1        0.0190
     22 C         140.1514  140.1417  167.7883 C.ar    1  UNL1        0.0646
     23 C         139.0129  139.2685  167.3509 C.ar    1  UNL1        0.0190
     24 C         138.2879  139.5661  166.0719 C.ar    1  UNL1        0.0382
     25 N         140.8764  139.8441  169.0673 N.pl3   1  UNL1       -0.2187
     26 H         140.5871  139.0927  169.6338 H       1  UNL1        0.1734
     27 S         142.0423  140.6914  169.4831 S.O2    1  UNL1        0.0558
     28 C         143.2081  141.5386  169.8990 C.3     1  UNL1        0.1996
     29 O         142.9827  139.7043  168.8577 O.2     1  UNL1       -0.1544
     30 O         141.1018  141.6784  170.1086 O.2     1  UNL1       -0.1544
@<TRIPOS>BOND
     1     9    10    1
     2    10    11   ar
     3    11    12   ar
     4    12    13   ar
     5    13     8    1
     6     8     7    1
     7     7     5    1
     8     5     4    1
     9     4     1    1
    10     1     2    1
    11     1    17    1
    12    17    18    1
    13    18    19    1
    14    19    20   ar
    15    20    21   ar
    16    21    22   ar
    17    22    25    1
    18    25    27    1
    19    27    28    1
    20    27    29    2
    21    27    30    2
    22    22    23   ar
    23    23    24   ar
    24    13    14   ar
    25    14    15   ar
    26    15    16    1
    27    15    10   ar
    28    24    19   ar
    29     5     6    1
    30     2     3    1
    31    25    26    1
@<TRIPOS>MOLECULE
*****
 30 31 0 0 0
SMALL
GASTEIGER

@<TRIPOS>ATOM
      1 C         142.4825  144.4610  163.1139 C.3     1  UNL1        0.1697
      2 O         142.5608  145.1363  161.7767 O.3     1  UNL1       -0.3793
      3 H         143.4898  145.3020  161.5521 H       1  UNL1        0.2106
      4 C         143.7389  144.1520  163.8727 C.3     1  UNL1        0.1021
      5 N         144.0304  142.7437  164.2992 N.3     1  UNL1       -0.2951
      6 H         144.0400  142.7409  165.3192 H       1  UNL1        0.1233
      7 C         145.2945  142.0711  163.8524 C.3     1  UNL1        0.0734
      8 C         145.4605  140.5912  164.0318 C.3     1  UNL1        0.0434
      9 C         140.6305  137.0787  164.6090 C.3     1  UNL1        0.0307
     10 C         141.8380  137.9568  164.4647 C.ar    1  UNL1       -0.0258
     11 C         142.5066  138.5190  165.6841 C.ar    1  UNL1       -0.0049
     12 C         143.7141  139.3972  165.5398 C.ar    1  UNL1       -0.0046
     13 C         144.2530  139.7131  164.1761 C.ar    1  UNL1       -0.0211
     14 C         143.5845  139.1509  162.9567 C.ar    1  UNL1       -0.0088
     15 C         142.3770  138.2727  163.1010 C.ar    1  UNL1       -0.0261
     16 C         141.7084  137.7105  161.8816 C.3     1  UNL1        0.0307
     17 C         141.1478  144.0948  163.6922 C.3     1  UNL1        0.2358
     18 O         140.6897  142.6666  163.6757 O.3     1  UNL1       -0.4728
     19 C         140.4078  141.9545  164.9656 C.ar    1  UNL1        0.1388
     20 C         139.4599  140.7922  164.9890 C.ar    1  UNL1        0.0382
     21 C         139.1780  140.0802  166.2788 C.ar    1  UNL1        0.0190
     22 C         139.8441  140.5305  167.5451 C.ar    1  UNL1        0.0646
     23 C         140.7920  141.6927  167.5217 C.ar    1  UNL1        0.0190
     24 C         141.0738  142.4047  166.2319 C.ar    1  UNL1        0.0382
     25 N         139.5622  139.8184  168.8349 N.pl3   1  UNL1       -0.2187
     26 H         138.9822  139.0229  168.8415 H       1  UNL1        0.1734
     27 S         140.1641  140.3183  170.1147 S.O2    1  UNL1        0.0558
     28 C         140.7659  140.8182  171.3944 C.3     1  UNL1        0.1996
     29 O         138.9679  141.1963  170.3343 O.2     1  UNL1       -0.1544
     30 O         141.3602  139.4403  169.8951 O.2     1  UNL1       -0.1544
@<TRIPOS>BOND
     1     9    10    1
     2    10    11   ar
     3    11    12   ar
     4    12    13   ar
     5    13     8    1
     6     8     7    1
     7     7     5    1
     8     5     4    1
     9     4     1    1
    10     1     2    1
    11     1    17    1
    12    17    18    1
    13    18    19    1
    14    19    20   ar
    15    20    21   ar
    16    21    22   ar
    17    22    25    1
    18    25    27    1
    19    27    28    1
    20    27    29    2
    21    27    30    2
    22    22    23   ar
    23    23    24   ar
    24    13    14   ar
    25    14    15   ar
    26    15    16    1
    27    15    10   ar
    28    24    19   ar
    29     5     6    1
    30     2     3    1
    31    25    26    1
@<TRIPOS>MOLECULE
*****
 30 31 0 0 0
SMALL
GASTEIGER

@<TRIPOS>ATOM
      1 C         145.0834  141.6074  162.3057 C.3     1  UNL1        0.1697
      2 O         145.1408  142.6216  161.2019 O.3     1  UNL1       -0.3793
      3 H         144.5749  142.3337  160.4686 H       1  UNL1        0.2106
      4 C         144.2332  140.3810  162.1538 C.3     1  UNL1        0.1021
      5 N         143.9447  139.5162  163.3451 N.3     1  UNL1       -0.2951
      6 H         144.8230  139.0653  163.6013 H       1  UNL1        0.1233
      7 C         142.9122  138.4321  163.2524 C.3     1  UNL1        0.0734
      8 C         141.4718  138.7421  163.5335 C.3     1  UNL1        0.0434
      9 C         139.8514  140.8530  168.9110 C.3     1  UNL1        0.0307
     10 C         140.2565  140.3253  167.5666 C.ar    1  UNL1       -0.0258
     11 C         139.3242  140.4535  166.3986 C.ar    1  UNL1       -0.0049
     12 C         139.7293  139.9258  165.0542 C.ar    1  UNL1       -0.0046
     13 C         141.0667  139.2699  164.8779 C.ar    1  UNL1       -0.0211
     14 C         141.9990  139.1417  166.0459 C.ar    1  UNL1       -0.0088
     15 C         141.5939  139.6694  167.3903 C.ar    1  UNL1       -0.0261
     16 C         142.5262  139.5412  168.5584 C.3     1  UNL1        0.0307
     17 C         145.8761  141.8198  163.5612 C.3     1  UNL1        0.2358
     18 O         145.2783  142.5834  164.7055 O.3     1  UNL1       -0.4728
     19 C         143.9496  143.2602  164.5429 C.ar    1  UNL1        0.1388
     20 C         142.7034  142.5982  165.0516 C.ar    1  UNL1        0.0382
     21 C         141.3748  143.2750  164.8889 C.ar    1  UNL1        0.0190
     22 C         141.2922  144.6137  164.2175 C.ar    1  UNL1        0.0646
     23 C         142.5383  145.2757  163.7087 C.ar    1  UNL1        0.0190
     24 C         143.8670  144.5990  163.8714 C.ar    1  UNL1        0.0382
     25 N         139.9634  145.2905  164.0548 N.pl3   1  UNL1       -0.2187
     26 H         139.9230  146.2456  163.8194 H       1  UNL1        0.1734
     27 S         138.6963  144.5121  164.2508 S.O2    1  UNL1        0.0558
     28 C         137.4292  143.7337  164.4468 C.3     1  UNL1        0.1996
     29 O         138.5682  145.0697  165.6373 O.2     1  UNL1       -0.1544
     30 O         138.8244  143.9544  162.8642 O.2     1  UNL1       -0.1544
@<TRIPOS>BOND
     1     9    10    1
     2    10    11   ar
     3    11    12   ar
     4    12    13   ar
     5    13     8    1
     6     8     7    1
     7     7     5    1
     8     5     4    1
     9     4     1    1
    10     1     2    1
    11     1    17    1
    12    17    18    1
    13    18    19    1
    14    19    20   ar
    15    20    21   ar
    16    21    22   ar
    17    22    25    1
    18    25    27    1
    19    27    28    1
    20    27    29    2
    21    27    30    2
    22    22    23   ar
    23    23    24   ar
    24    13    14   ar
    25    14    15   ar
    26    15    16    1
    27    15    10   ar
    28    24    19   ar
    29     5     6    1
    30     2     3    1
    31    25    26    1
@<TRIPOS>MOLECULE
*****
 30 31 0 0 0
SMALL
GASTEIGER

@<TRIPOS>ATOM
      1 C         144.5960  139.6333  164.0507 C.3     1  UNL1        0.1697
      2 O         144.7195  138.8350  162.7867 O.3     1  UNL1       -0.3793
      3 H         144.3361  137.9543  162.9217 H       1  UNL1        0.2106
      4 C         143.9517  139.0258  165.2614 C.3     1  UNL1        0.1021
      5 N         142.7531  138.1372  165.1069 N.3     1  UNL1       -0.2951
      6 H         142.8319  137.6930  164.1921 H       1  UNL1        0.1233
      7 C         141.3729  138.7188  165.1885 C.3     1  UNL1        0.0734
      8 C         140.8903  139.6575  164.1228 C.3     1  UNL1        0.0434
      9 C         138.6788  145.0272  165.6315 C.3     1  UNL1        0.0307
     10 C         139.2317  143.6848  165.2543 C.ar    1  UNL1       -0.0258
     11 C         140.1332  142.9515  166.2027 C.ar    1  UNL1       -0.0049
     12 C         140.6861  141.6091  165.8256 C.ar    1  UNL1       -0.0046
     13 C         140.3375  140.9999  164.4999 C.ar    1  UNL1       -0.0211
     14 C         139.4360  141.7332  163.5515 C.ar    1  UNL1       -0.0088
     15 C         138.8831  143.0756  163.9286 C.ar    1  UNL1       -0.0261
     16 C         137.9816  143.8089  162.9801 C.3     1  UNL1        0.0307
     17 C         145.1168  141.0389  164.1039 C.3     1  UNL1        0.2358
     18 O         144.2559  142.1374  164.6537 O.3     1  UNL1       -0.4728
     19 C         143.4035  142.9560  163.7297 C.ar    1  UNL1        0.1388
     20 C         142.9151  144.3074  164.1599 C.ar    1  UNL1        0.0382
     21 C         142.0628  145.1258  163.2360 C.ar    1  UNL1        0.0190
     22 C         141.6989  144.5929  161.8819 C.ar    1  UNL1        0.0646
     23 C         142.1874  143.2415  161.4517 C.ar    1  UNL1        0.0190
     24 C         143.0397  142.4230  162.3756 C.ar    1  UNL1        0.0382
     25 N         140.8466  145.4114  160.9580 N.pl3   1  UNL1       -0.2187
     26 H         140.4041  146.2262  161.2889 H       1  UNL1        0.1734
     27 S         140.6685  144.9885  159.5299 S.O2    1  UNL1        0.0558
     28 C         140.4904  144.5656  158.1019 C.3     1  UNL1        0.1996
     29 O         141.9427  145.6899  159.1633 O.2     1  UNL1       -0.1544
     30 O         139.3943  144.2871  159.8966 O.2     1  UNL1       -0.1544
@<TRIPOS>BOND
     1     9    10    1
     2    10    11   ar
     3    11    12   ar
     4    12    13   ar
     5    13     8    1
     6     8     7    1
     7     7     5    1
     8     5     4    1
     9     4     1    1
    10     1     2    1
    11     1    17    1
    12    17    18    1
    13    18    19    1
    14    19    20   ar
    15    20    21   ar
    16    21    22   ar
    17    22    25    1
    18    25    27    1
    19    27    28    1
    20    27    29    2
    21    27    30    2
    22    22    23   ar
    23    23    24   ar
    24    13    14   ar
    25    14    15   ar
    26    15    16    1
    27    15    10   ar
    28    24    19   ar
    29     5     6    1
    30     2     3    1
    31    25    26    1
