@<TRIPOS>MOLECULE
*****
 42 47 0 0 0
SMALL
GASTEIGER

@<TRIPOS>ATOM
      1 C         138.6731  143.2464  161.8686 C.ar    1  UNL1        0.0910
      2 N         139.1989  144.0694  160.7301 N.ar    1  UNL1       -0.2295
      3 C         139.9788  143.1631  159.8244 C.ar    1  UNL1        0.1484
      4 C         140.7232  143.4186  158.5475 C.ar    1  UNL1        0.0387
      5 C         141.4237  142.2909  157.8493 C.ar    1  UNL1        0.0191
      6 C         141.3799  140.9078  158.4280 C.ar    1  UNL1        0.0659
      7 C         140.6356  140.6523  159.7049 C.ar    1  UNL1        0.0970
      8 N         139.9350  141.7799  160.4031 N.ar    1  UNL1       -0.2761
      9 C         139.1280  141.8314  161.6665 C.ar    1  UNL1        0.1365
     10 N         142.0806  139.7801  157.7297 N.pl3   1  UNL1       -0.3035
     11 C         142.9015  140.0514  156.5041 C.3     1  UNL1        0.1082
     12 C         143.6022  138.9237  155.8058 C.3     1  UNL1        0.0942
     13 N         143.4817  137.5247  156.3333 N.3     1  UNL1       -0.2620
     14 C         142.6607  137.2534  157.5590 C.3     1  UNL1        0.0942
     15 C         141.9601  138.3810  158.2572 C.3     1  UNL1        0.1082
     16 C         144.1823  136.3970  155.6351 C.3     1  UNL1        0.1587
     17 C         143.3975  135.2187  155.1395 C.2     1  UNL1        0.2422
     18 O         142.6543  135.3057  153.8395 O.2     1  UNL1       -0.2734
     19 N         143.3559  133.9533  155.9440 N.am    1  UNL1       -0.2733
     20 C         142.7027  132.6130  155.7799 C.3     1  UNL1        0.1244
     21 C         143.2971  132.1639  157.0818 C.3     1  UNL1        0.1500
     22 O         143.2555  130.8986  157.8863 O.3     1  UNL1       -0.3810
     23 C         143.9503  133.5042  157.2459 C.3     1  UNL1        0.1244
     24 H         142.7087  130.2417  157.4277 H       1  UNL1        0.2105
     25 C         138.4848  144.4958  164.1387 C.3     1  UNL1        0.0068
     26 C         137.8388  143.7500  163.0090 C.3     1  UNL1        0.0487
     27 N         138.8286  140.6716  162.5693 N.pl3   1  UNL1       -0.2509
     28 C         137.8051  139.6518  162.1658 C.3     1  UNL1        0.1207
     29 C         139.5525  140.5313  163.8754 C.ar    1  UNL1        0.1685
     30 N         139.1781  141.1961  165.1669 N.ar    1  UNL1       -0.2230
     31 C         140.1722  140.7773  166.2091 C.ar    1  UNL1        0.0989
     32 C         141.1610  139.8536  165.5619 C.ar    1  UNL1        0.1179
     33 S         140.7780  139.7016  164.1196 S.2     1  UNL1       -0.0408
     34 C         140.1766  141.2067  167.6463 C.ar    1  UNL1        0.0190
     35 C         140.6647  142.5754  168.0186 C.ar    1  UNL1        0.0038
     36 C         140.6692  143.0048  169.4559 C.ar    1  UNL1        0.0297
     37 C         140.1856  142.0656  170.5208 C.ar    1  UNL1        0.1401
     38 F         140.1901  142.4951  171.9580 F       1  UNL1       -0.2042
     39 C         139.6976  140.6970  170.1485 C.ar    1  UNL1        0.0297
     40 C         139.6931  140.2675  168.7113 C.ar    1  UNL1        0.0038
     41 C         142.3280  139.1972  166.2382 C.1     1  UNL1        0.1086
     42 N         143.4950  138.5406  166.9143 N.1     1  UNL1       -0.1903
@<TRIPOS>BOND
     1    25    26    1
     2    26     1    1
     3     1     2   ar
     4     2     3   ar
     5     3     4   ar
     6     4     5   ar
     7     5     6   ar
     8     6    10    1
     9    10    11    1
    10    11    12    1
    11    12    13    1
    12    13    16    1
    13    16    17    1
    14    17    18    2
    15    17    19   am
    16    19    20    1
    17    20    21    1
    18    21    22    1
    19    21    23    1
    20    13    14    1
    21    14    15    1
    22     6     7   ar
    23     7     8   ar
    24     8     9   ar
    25     9    27    1
    26    27    28    1
    27    27    29    1
    28    29    30   ar
    29    30    31   ar
    30    31    34    1
    31    34    35   ar
    32    35    36   ar
    33    36    37   ar
    34    37    38    1
    35    37    39   ar
    36    39    40   ar
    37    31    32   ar
    38    32    41    1
    39    41    42    3
    40    32    33   ar
    41     9     1   ar
    42    33    29   ar
    43     8     3   ar
    44    40    34   ar
    45    15    10    1
    46    23    19    1
    47    22    24    1
@<TRIPOS>MOLECULE
*****
 42 47 0 0 0
SMALL
GASTEIGER

@<TRIPOS>ATOM
      1 C         140.1071  143.6083  162.3469 C.ar    1  UNL1        0.0910
      2 N         141.2500  144.2793  161.6443 N.ar    1  UNL1       -0.2295
      3 C         141.8300  143.3022  160.6651 C.ar    1  UNL1        0.1484
      4 C         142.9711  143.4086  159.6973 C.ar    1  UNL1        0.0387
      5 C         143.3278  142.2401  158.8270 C.ar    1  UNL1        0.0191
      6 C         142.5435  140.9653  158.9245 C.ar    1  UNL1        0.0659
      7 C         141.4024  140.8588  159.8923 C.ar    1  UNL1        0.0970
      8 N         141.0457  142.0273  160.7626 N.ar    1  UNL1       -0.2761
      9 C         139.9809  142.2165  161.8020 C.ar    1  UNL1        0.1365
     10 N         142.9002  139.7968  158.0541 N.pl3   1  UNL1       -0.3035
     11 C         143.6712  140.0140  156.7860 C.3     1  UNL1        0.1082
     12 C         144.0280  138.8455  155.9156 C.3     1  UNL1        0.0942
     13 N         143.6137  137.4599  156.3135 N.3     1  UNL1       -0.2620
     14 C         142.8427  137.2427  157.5818 C.3     1  UNL1        0.0942
     15 C         142.4859  138.4111  158.4521 C.3     1  UNL1        0.1082
     16 C         143.9704  136.2914  155.4432 C.3     1  UNL1        0.1587
     17 C         142.9624  135.2101  155.1892 C.2     1  UNL1        0.2422
     18 O         141.8783  135.4189  154.1737 O.2     1  UNL1       -0.2734
     19 N         143.0383  133.9200  155.9507 N.am    1  UNL1       -0.2733
     20 C         142.2379  132.6515  155.9709 C.3     1  UNL1        0.1244
     21 C         143.1457  132.0955  157.0277 C.3     1  UNL1        0.1500
     22 O         143.2217  130.8055  157.7892 O.3     1  UNL1       -0.3810
     23 C         143.9461  133.3640  157.0075 C.3     1  UNL1        0.1244
     24 H         142.5016  130.2202  157.5064 H       1  UNL1        0.2105
     25 C         137.7573  144.3000  163.2127 C.3     1  UNL1        0.0068
     26 C         139.2424  144.2215  163.4081 C.3     1  UNL1        0.0487
     27 N         138.9677  141.1935  162.2226 N.pl3   1  UNL1       -0.2509
     28 C         137.8956  140.7623  161.2661 C.3     1  UNL1        0.1207
     29 C         139.0266  140.6016  163.5996 C.ar    1  UNL1        0.1685
     30 N         140.1504  140.7603  164.5802 N.ar    1  UNL1       -0.2230
     31 C         139.7903  140.0038  165.8244 C.ar    1  UNL1        0.0989
     32 C         138.4439  139.3776  165.6128 C.ar    1  UNL1        0.1179
     33 S         137.9718  139.7470  164.2377 S.2     1  UNL1       -0.0408
     34 C         140.6293  139.8931  167.0629 C.ar    1  UNL1        0.0190
     35 C         140.0545  140.2746  168.3948 C.ar    1  UNL1        0.0038
     36 C         140.8935  140.1638  169.6333 C.ar    1  UNL1        0.0297
     37 C         142.3073  139.6715  169.5399 C.ar    1  UNL1        0.1401
     38 F         143.1463  139.5607  170.7783 F       1  UNL1       -0.2042
     39 C         142.8821  139.2899  168.2080 C.ar    1  UNL1        0.0297
     40 C         142.0431  139.4007  166.9695 C.ar    1  UNL1        0.0038
     41 C         137.6999  138.5306  166.6024 C.1     1  UNL1        0.1086
     42 N         136.9561  137.6835  167.5919 N.1     1  UNL1       -0.1903
@<TRIPOS>BOND
     1    25    26    1
     2    26     1    1
     3     1     2   ar
     4     2     3   ar
     5     3     4   ar
     6     4     5   ar
     7     5     6   ar
     8     6    10    1
     9    10    11    1
    10    11    12    1
    11    12    13    1
    12    13    16    1
    13    16    17    1
    14    17    18    2
    15    17    19   am
    16    19    20    1
    17    20    21    1
    18    21    22    1
    19    21    23    1
    20    13    14    1
    21    14    15    1
    22     6     7   ar
    23     7     8   ar
    24     8     9   ar
    25     9    27    1
    26    27    28    1
    27    27    29    1
    28    29    30   ar
    29    30    31   ar
    30    31    34    1
    31    34    35   ar
    32    35    36   ar
    33    36    37   ar
    34    37    38    1
    35    37    39   ar
    36    39    40   ar
    37    31    32   ar
    38    32    41    1
    39    41    42    3
    40    32    33   ar
    41     9     1   ar
    42    33    29   ar
    43     8     3   ar
    44    40    34   ar
    45    15    10    1
    46    23    19    1
    47    22    24    1
@<TRIPOS>MOLECULE
*****
 42 47 0 0 0
SMALL
GASTEIGER

@<TRIPOS>ATOM
      1 C         140.6515  144.5568  161.4983 C.ar    1  UNL1        0.0910
      2 N         139.8196  144.5727  160.2503 N.ar    1  UNL1       -0.2295
      3 C         140.2735  143.4413  159.3762 C.ar    1  UNL1        0.1484
      4 C         139.8176  142.9700  158.0271 C.ar    1  UNL1        0.0387
      5 C         140.4741  141.7835  157.3860 C.ar    1  UNL1        0.0191
      6 C         141.5865  141.0683  158.0938 C.ar    1  UNL1        0.0659
      7 C         142.0425  141.5397  159.4428 C.ar    1  UNL1        0.0970
      8 N         141.3859  142.7262  160.0840 N.ar    1  UNL1       -0.2761
      9 C         141.6195  143.4156  161.3956 C.ar    1  UNL1        0.1365
     10 N         142.2431  139.8818  157.4526 N.pl3   1  UNL1       -0.3035
     11 C         141.7806  138.4954  157.7900 C.3     1  UNL1        0.1082
     12 C         142.4371  137.3088  157.1488 C.3     1  UNL1        0.0942
     13 N         143.5561  137.5088  156.1701 N.3     1  UNL1       -0.2620
     14 C         144.0186  138.8953  155.8326 C.3     1  UNL1        0.0942
     15 C         143.3621  140.0817  156.4739 C.3     1  UNL1        0.1082
     16 C         144.2127  136.3223  155.5288 C.3     1  UNL1        0.1587
     17 C         143.3818  135.1567  155.0806 C.2     1  UNL1        0.2422
     18 O         142.5885  135.2454  153.8107 O.2     1  UNL1       -0.2734
     19 N         143.3442  133.9023  155.9023 N.am    1  UNL1       -0.2733
     20 C         142.6546  132.5757  155.7820 C.3     1  UNL1        0.1244
     21 C         143.2912  132.1284  157.0644 C.3     1  UNL1        0.1500
     22 O         143.2536  130.8741  157.8862 O.3     1  UNL1       -0.3810
     23 C         143.9808  133.4550  157.1848 C.3     1  UNL1        0.1244
     24 H         142.6738  130.2246  157.4585 H       1  UNL1        0.2105
     25 C         139.9570  145.0529  163.9522 C.3     1  UNL1        0.0068
     26 C         140.5356  145.5140  162.6474 C.3     1  UNL1        0.0487
     27 N         142.6417  143.0312  162.4238 N.pl3   1  UNL1       -0.2509
     28 C         143.9570  143.7504  162.4792 C.3     1  UNL1        0.1207
     29 C         142.3488  141.9278  163.3967 C.ar    1  UNL1        0.1685
     30 N         140.9867  141.4475  163.8013 N.ar    1  UNL1       -0.2230
     31 C         141.1627  140.3337  164.7905 C.ar    1  UNL1        0.0989
     32 C         142.6336  140.1257  164.9973 C.ar    1  UNL1        0.1179
     33 S         143.3668  141.1109  164.1359 S.2     1  UNL1       -0.0408
     34 C         140.0611  139.5633  165.4560 C.ar    1  UNL1        0.0190
     35 C         139.5655  138.2853  164.8467 C.ar    1  UNL1        0.0038
     36 C         138.4639  137.5149  165.5122 C.ar    1  UNL1        0.0297
     37 C         137.8579  138.0223  166.7871 C.ar    1  UNL1        0.1401
     38 F         136.7563  137.2519  167.4526 F       1  UNL1       -0.2042
     39 C         138.3535  139.3003  167.3963 C.ar    1  UNL1        0.0297
     40 C         139.4551  140.0707  166.7308 C.ar    1  UNL1        0.0038
     41 C         143.2614  139.1106  165.9060 C.1     1  UNL1        0.1086
     42 N         143.8893  138.0957  166.8147 N.1     1  UNL1       -0.1903
@<TRIPOS>BOND
     1    25    26    1
     2    26     1    1
     3     1     2   ar
     4     2     3   ar
     5     3     4   ar
     6     4     5   ar
     7     5     6   ar
     8     6    10    1
     9    10    11    1
    10    11    12    1
    11    12    13    1
    12    13    16    1
    13    16    17    1
    14    17    18    2
    15    17    19   am
    16    19    20    1
    17    20    21    1
    18    21    22    1
    19    21    23    1
    20    13    14    1
    21    14    15    1
    22     6     7   ar
    23     7     8   ar
    24     8     9   ar
    25     9    27    1
    26    27    28    1
    27    27    29    1
    28    29    30   ar
    29    30    31   ar
    30    31    34    1
    31    34    35   ar
    32    35    36   ar
    33    36    37   ar
    34    37    38    1
    35    37    39   ar
    36    39    40   ar
    37    31    32   ar
    38    32    41    1
    39    41    42    3
    40    32    33   ar
    41     9     1   ar
    42    33    29   ar
    43     8     3   ar
    44    40    34   ar
    45    15    10    1
    46    23    19    1
    47    22    24    1
@<TRIPOS>MOLECULE
*****
 42 47 0 0 0
SMALL
GASTEIGER

@<TRIPOS>ATOM
      1 C         141.4357  144.8018  162.1920 C.ar    1  UNL1        0.0910
      2 N         142.2369  145.0519  160.9488 N.ar    1  UNL1       -0.2295
      3 C         141.4743  144.4911  159.7852 C.ar    1  UNL1        0.1484
      4 C         141.7743  144.4467  158.3162 C.ar    1  UNL1        0.0387
      5 C         140.8017  143.8056  157.3713 C.ar    1  UNL1        0.0191
      6 C         139.5292  143.2088  157.8953 C.ar    1  UNL1        0.0659
      7 C         139.2293  143.2532  159.3643 C.ar    1  UNL1        0.0970
      8 N         140.2018  143.8943  160.3093 N.ar    1  UNL1       -0.2761
      9 C         140.1780  144.0863  161.7968 C.ar    1  UNL1        0.1365
     10 N         138.5566  142.5676  156.9503 N.pl3   1  UNL1       -0.3035
     11 C         138.5542  141.0782  156.7728 C.3     1  UNL1        0.1082
     12 C         137.5816  140.4370  155.8278 C.3     1  UNL1        0.0942
     13 N         136.6114  141.2854  155.0602 N.3     1  UNL1       -0.2620
     14 C         136.6139  142.7749  155.2377 C.3     1  UNL1        0.0942
     15 C         137.5865  143.4160  156.1827 C.3     1  UNL1        0.1082
     16 C         135.6389  140.6443  154.1152 C.3     1  UNL1        0.1587
     17 C         134.1865  141.0155  154.1677 C.2     1  UNL1        0.2422
     18 O         133.5633  141.7686  153.0299 O.2     1  UNL1       -0.2734
     19 N         133.3573  140.6337  155.3580 N.am    1  UNL1       -0.2733
     20 C         131.9237  140.8227  155.7566 C.3     1  UNL1        0.1244
     21 C         132.1848  140.0937  157.0413 C.3     1  UNL1        0.1500
     22 O         131.3557  139.7119  158.2316 O.3     1  UNL1       -0.3810
     23 C         133.6184  139.9047  156.6427 C.3     1  UNL1        0.1244
     24 H         130.4463  140.0253  158.1061 H       1  UNL1        0.2105
     25 C         143.2698  145.2153  163.9851 C.3     1  UNL1        0.0068
     26 C         141.8241  145.1975  163.5858 C.3     1  UNL1        0.0487
     27 N         139.0878  143.6411  162.7258 N.pl3   1  UNL1       -0.2509
     28 C         137.7827  144.3799  162.7594 C.3     1  UNL1        0.1207
     29 C         139.3025  142.4571  163.6213 C.ar    1  UNL1        0.1685
     30 N         140.6283  141.8641  163.9964 N.ar    1  UNL1       -0.2230
     31 C         140.3742  140.6988  164.9059 C.ar    1  UNL1        0.0989
     32 C         138.8915  140.5714  165.0930 C.ar    1  UNL1        0.1179
     33 S         138.2290  141.6581  164.2991 S.2     1  UNL1       -0.0408
     34 C         141.4195  139.8157  165.5205 C.ar    1  UNL1        0.0190
     35 C         142.0690  138.7402  164.7010 C.ar    1  UNL1        0.0038
     36 C         143.1142  137.8571  165.3156 C.ar    1  UNL1        0.0297
     37 C         143.5100  138.0496  166.7496 C.ar    1  UNL1        0.1401
     38 F         144.5553  137.1665  167.3641 F       1  UNL1       -0.2042
     39 C         142.8606  139.1251  167.5690 C.ar    1  UNL1        0.0297
     40 C         141.8153  140.0081  166.9544 C.ar    1  UNL1        0.0038
     41 C         138.1935  139.5386  165.9276 C.1     1  UNL1        0.1086
     42 N         137.4954  138.5060  166.7620 N.1     1  UNL1       -0.1903
@<TRIPOS>BOND
     1    25    26    1
     2    26     1    1
     3     1     2   ar
     4     2     3   ar
     5     3     4   ar
     6     4     5   ar
     7     5     6   ar
     8     6    10    1
     9    10    11    1
    10    11    12    1
    11    12    13    1
    12    13    16    1
    13    16    17    1
    14    17    18    2
    15    17    19   am
    16    19    20    1
    17    20    21    1
    18    21    22    1
    19    21    23    1
    20    13    14    1
    21    14    15    1
    22     6     7   ar
    23     7     8   ar
    24     8     9   ar
    25     9    27    1
    26    27    28    1
    27    27    29    1
    28    29    30   ar
    29    30    31   ar
    30    31    34    1
    31    34    35   ar
    32    35    36   ar
    33    36    37   ar
    34    37    38    1
    35    37    39   ar
    36    39    40   ar
    37    31    32   ar
    38    32    41    1
    39    41    42    3
    40    32    33   ar
    41     9     1   ar
    42    33    29   ar
    43     8     3   ar
    44    40    34   ar
    45    15    10    1
    46    23    19    1
    47    22    24    1
@<TRIPOS>MOLECULE
*****
 42 47 0 0 0
SMALL
GASTEIGER

@<TRIPOS>ATOM
      1 C         140.3413  144.8506  162.5371 C.ar    1  UNL1        0.0910
      2 N         139.6297  145.2023  161.2643 N.ar    1  UNL1       -0.2295
      3 C         140.4737  144.7329  160.1165 C.ar    1  UNL1        0.1484
      4 C         140.2785  144.8070  158.6311 C.ar    1  UNL1        0.0387
      5 C         141.3166  144.2393  157.7091 C.ar    1  UNL1        0.0191
      6 C         142.5498  143.5976  158.2725 C.ar    1  UNL1        0.0659
      7 C         142.7449  143.5235  159.7579 C.ar    1  UNL1        0.0970
      8 N         141.7068  144.0912  160.6799 N.ar    1  UNL1       -0.2761
      9 C         141.6250  144.1640  162.1759 C.ar    1  UNL1        0.1365
     10 N         143.5879  143.0299  157.3505 N.pl3   1  UNL1       -0.3035
     11 C         143.3202  142.9525  155.8766 C.3     1  UNL1        0.1082
     12 C         144.3583  142.3848  154.9545 C.3     1  UNL1        0.0942
     13 N         145.6641  141.8945  155.5064 N.3     1  UNL1       -0.2620
     14 C         145.9318  141.9719  156.9804 C.3     1  UNL1        0.0942
     15 C         144.8937  142.5396  157.9023 C.3     1  UNL1        0.1082
     16 C         146.7022  141.3268  154.5845 C.3     1  UNL1        0.1587
     17 C         147.5949  142.2454  153.8039 C.2     1  UNL1        0.2422
     18 O         147.0037  143.1973  152.8067 O.2     1  UNL1       -0.2734
     19 N         149.0788  142.2120  154.0205 N.am    1  UNL1       -0.2733
     20 C         150.2512  142.9521  153.4479 C.3     1  UNL1        0.1244
     21 C         151.1774  142.1649  154.3269 C.3     1  UNL1        0.1500
     22 O         152.6613  142.1315  154.5435 O.3     1  UNL1       -0.3810
     23 C         150.0050  141.4248  154.8995 C.3     1  UNL1        0.1244
     24 H         153.0873  142.7827  153.9644 H       1  UNL1        0.2105
     25 C         138.5704  144.5302  164.4109 C.3     1  UNL1        0.0068
     26 C         139.8546  145.1357  163.9270 C.3     1  UNL1        0.0487
     27 N         142.6475  143.6417  163.1412 N.pl3   1  UNL1       -0.2509
     28 C         143.9433  144.3735  163.3301 C.3     1  UNL1        0.1207
     29 C         142.3743  142.3878  163.9176 C.ar    1  UNL1        0.1685
     30 N         141.0208  141.8254  164.2366 N.ar    1  UNL1       -0.2230
     31 C         141.2167  140.5661  165.0276 C.ar    1  UNL1        0.0989
     32 C         142.6913  140.3500  165.1974 C.ar    1  UNL1        0.1179
     33 S         143.4068  141.4759  164.5114 S.2     1  UNL1       -0.0408
     34 C         140.1290  139.6785  165.5559 C.ar    1  UNL1        0.0190
     35 C         139.3584  140.0827  166.7777 C.ar    1  UNL1        0.0038
     36 C         138.2706  139.1952  167.3060 C.ar    1  UNL1        0.0297
     37 C         137.9536  137.9034  166.6126 C.ar    1  UNL1        0.1401
     38 F         136.8658  137.0159  167.1410 F       1  UNL1       -0.2042
     39 C         138.7242  137.4992  165.3909 C.ar    1  UNL1        0.0297
     40 C         139.8119  138.3868  164.8625 C.ar    1  UNL1        0.0038
     41 C         143.3372  139.2085  165.9254 C.1     1  UNL1        0.1086
     42 N         143.9831  138.0670  166.6533 N.1     1  UNL1       -0.1903
@<TRIPOS>BOND
     1    25    26    1
     2    26     1    1
     3     1     2   ar
     4     2     3   ar
     5     3     4   ar
     6     4     5   ar
     7     5     6   ar
     8     6    10    1
     9    10    11    1
    10    11    12    1
    11    12    13    1
    12    13    16    1
    13    16    17    1
    14    17    18    2
    15    17    19   am
    16    19    20    1
    17    20    21    1
    18    21    22    1
    19    21    23    1
    20    13    14    1
    21    14    15    1
    22     6     7   ar
    23     7     8   ar
    24     8     9   ar
    25     9    27    1
    26    27    28    1
    27    27    29    1
    28    29    30   ar
    29    30    31   ar
    30    31    34    1
    31    34    35   ar
    32    35    36   ar
    33    36    37   ar
    34    37    38    1
    35    37    39   ar
    36    39    40   ar
    37    31    32   ar
    38    32    41    1
    39    41    42    3
    40    32    33   ar
    41     9     1   ar
    42    33    29   ar
    43     8     3   ar
    44    40    34   ar
    45    15    10    1
    46    23    19    1
    47    22    24    1
@<TRIPOS>MOLECULE
*****
 42 47 0 0 0
SMALL
GASTEIGER

@<TRIPOS>ATOM
      1 C         143.4643  141.2233  162.4504 C.ar    1  UNL1        0.0910
      2 N         143.6460  142.3359  161.4610 N.ar    1  UNL1       -0.2295
      3 C         142.6153  142.1711  160.3836 C.ar    1  UNL1        0.1484
      4 C         142.3166  142.9700  159.1498 C.ar    1  UNL1        0.0387
      5 C         141.1991  142.5544  158.2396 C.ar    1  UNL1        0.0191
      6 C         140.3804  141.3399  158.5632 C.ar    1  UNL1        0.0659
      7 C         140.6792  140.5410  159.7971 C.ar    1  UNL1        0.0970
      8 N         141.7966  140.9566  160.7073 N.ar    1  UNL1       -0.2761
      9 C         142.3213  140.3709  161.9846 C.ar    1  UNL1        0.1365
     10 N         139.2629  140.9244  157.6529 N.pl3   1  UNL1       -0.3035
     11 C         137.8979  141.5237  157.8191 C.3     1  UNL1        0.1082
     12 C         136.7804  141.1081  156.9088 C.3     1  UNL1        0.0942
     13 N         137.0280  140.0932  155.8324 N.3     1  UNL1       -0.2620
     14 C         138.3930  139.4939  155.6662 C.3     1  UNL1        0.0942
     15 C         139.5105  139.9095  156.5765 C.3     1  UNL1        0.1082
     16 C         135.9106  139.6776  154.9221 C.3     1  UNL1        0.1587
     17 C         134.6559  140.4967  154.8526 C.2     1  UNL1        0.2422
     18 O         134.5233  141.5797  153.8232 O.2     1  UNL1       -0.2734
     19 N         133.5337  140.2328  155.8124 N.am    1  UNL1       -0.2733
     20 C         132.1739  140.8227  156.0424 C.3     1  UNL1        0.1244
     21 C         131.9468  139.8596  157.1697 C.3     1  UNL1        0.1500
     22 O         130.8247  139.5956  158.1295 O.3     1  UNL1       -0.3810
     23 C         133.3066  139.2697  156.9396 C.3     1  UNL1        0.1244
     24 H         130.0945  140.2083  157.9496 H       1  UNL1        0.2105
     25 C         145.5643  141.7550  163.8847 C.3     1  UNL1        0.0068
     26 C         144.2820  141.0020  163.6883 C.3     1  UNL1        0.0487
     27 N         141.7954  139.1474  162.6749 N.pl3   1  UNL1       -0.2509
     28 C         142.0576  137.7886  162.0962 C.3     1  UNL1        0.1207
     29 C         141.0073  139.2827  163.9439 C.ar    1  UNL1        0.1685
     30 N         141.2644  140.2736  165.0402 N.ar    1  UNL1       -0.2230
     31 C         140.2396  140.0540  166.1133 C.ar    1  UNL1        0.0989
     32 C         139.3491  138.9274  165.6803 C.ar    1  UNL1        0.1179
     33 S         139.8235  138.4506  164.3395 S.2     1  UNL1       -0.0408
     34 C         140.1254  140.8257  167.3946 C.ar    1  UNL1        0.0190
     35 C         139.5787  140.1620  168.6236 C.ar    1  UNL1        0.0038
     36 C         139.4645  140.9336  169.9049 C.ar    1  UNL1        0.0297
     37 C         139.8970  142.3690  169.9570 C.ar    1  UNL1        0.1401
     38 F         139.7828  143.1406  171.2383 F       1  UNL1       -0.2042
     39 C         140.4437  143.0327  168.7280 C.ar    1  UNL1        0.0297
     40 C         140.5579  142.2610  167.4468 C.ar    1  UNL1        0.0038
     41 C         138.1879  138.3745  166.4524 C.1     1  UNL1        0.1086
     42 N         137.0269  137.8215  167.2245 N.1     1  UNL1       -0.1903
@<TRIPOS>BOND
     1    25    26    1
     2    26     1    1
     3     1     2   ar
     4     2     3   ar
     5     3     4   ar
     6     4     5   ar
     7     5     6   ar
     8     6    10    1
     9    10    11    1
    10    11    12    1
    11    12    13    1
    12    13    16    1
    13    16    17    1
    14    17    18    2
    15    17    19   am
    16    19    20    1
    17    20    21    1
    18    21    22    1
    19    21    23    1
    20    13    14    1
    21    14    15    1
    22     6     7   ar
    23     7     8   ar
    24     8     9   ar
    25     9    27    1
    26    27    28    1
    27    27    29    1
    28    29    30   ar
    29    30    31   ar
    30    31    34    1
    31    34    35   ar
    32    35    36   ar
    33    36    37   ar
    34    37    38    1
    35    37    39   ar
    36    39    40   ar
    37    31    32   ar
    38    32    41    1
    39    41    42    3
    40    32    33   ar
    41     9     1   ar
    42    33    29   ar
    43     8     3   ar
    44    40    34   ar
    45    15    10    1
    46    23    19    1
    47    22    24    1
@<TRIPOS>MOLECULE
*****
 42 47 0 0 0
SMALL
GASTEIGER

@<TRIPOS>ATOM
      1 C         142.4367  144.2426  162.0776 C.ar    1  UNL1        0.0910
      2 N         141.9163  144.7057  160.7492 N.ar    1  UNL1       -0.2295
      3 C         142.1318  143.6020  159.7565 C.ar    1  UNL1        0.1484
      4 C         141.8173  143.4919  158.2940 C.ar    1  UNL1        0.0387
      5 C         142.1564  142.2365  157.5465 C.ar    1  UNL1        0.0191
      6 C         142.8100  141.0912  158.2614 C.ar    1  UNL1        0.0659
      7 C         143.1245  141.2013  159.7239 C.ar    1  UNL1        0.0970
      8 N         142.7854  142.4567  160.4715 N.ar    1  UNL1       -0.2761
      9 C         142.9738  142.8526  161.9059 C.ar    1  UNL1        0.1365
     10 N         143.1491  139.8357  157.5137 N.pl3   1  UNL1       -0.3035
     11 C         142.5739  138.5222  157.9538 C.3     1  UNL1        0.1082
     12 C         142.9131  137.2667  157.2062 C.3     1  UNL1        0.0942
     13 N         143.8273  137.3249  156.0184 N.3     1  UNL1       -0.2620
     14 C         144.4025  138.6385  155.5784 C.3     1  UNL1        0.0942
     15 C         144.0634  139.8939  156.3260 C.3     1  UNL1        0.1082
     16 C         144.1665  136.0695  155.2708 C.3     1  UNL1        0.1587
     17 C         143.1166  135.0212  155.0502 C.2     1  UNL1        0.2422
     18 O         142.0455  135.2371  154.0225 O.2     1  UNL1       -0.2734
     19 N         143.1377  133.7570  155.8573 N.am    1  UNL1       -0.2733
     20 C         142.2868  132.5232  155.9184 C.3     1  UNL1        0.1244
     21 C         143.1677  131.9692  156.9987 C.3     1  UNL1        0.1500
     22 O         143.1889  130.7050  157.8058 O.3     1  UNL1       -0.3810
     23 C         144.0186  133.2030  156.9376 C.3     1  UNL1        0.1244
     24 H         142.4469  130.1395  157.5404 H       1  UNL1        0.2105
     25 C         143.7133  145.3876  164.0294 C.3     1  UNL1        0.0068
     26 C         142.4225  145.0310  163.3536 C.3     1  UNL1        0.0487
     27 N         143.5910  142.0070  162.9802 N.pl3   1  UNL1       -0.2509
     28 C         145.0835  141.9308  163.1100 C.3     1  UNL1        0.1207
     29 C         142.7159  141.2375  163.9246 C.ar    1  UNL1        0.1685
     30 N         142.6417  141.4270  165.4107 N.ar    1  UNL1       -0.2230
     31 C         141.6413  140.4500  165.9532 C.ar    1  UNL1        0.0989
     32 C         141.0970  139.6566  164.8025 C.ar    1  UNL1        0.1179
     33 S         141.7612  140.1433  163.5486 S.2     1  UNL1       -0.0408
     34 C         141.2531  140.2938  167.3937 C.ar    1  UNL1        0.0190
     35 C         142.2027  139.6512  168.3609 C.ar    1  UNL1        0.0038
     36 C         141.8145  139.4950  169.8014 C.ar    1  UNL1        0.0297
     37 C         140.4768  139.9813  170.2747 C.ar    1  UNL1        0.1401
     38 F         140.0887  139.8251  171.7152 F       1  UNL1       -0.2042
     39 C         139.5273  140.6239  169.3075 C.ar    1  UNL1        0.0297
     40 C         139.9154  140.7801  167.8670 C.ar    1  UNL1        0.0038
     41 C         140.0690  138.5677  164.8901 C.1     1  UNL1        0.1086
     42 N         139.0412  137.4787  164.9776 N.1     1  UNL1       -0.1903
@<TRIPOS>BOND
     1    25    26    1
     2    26     1    1
     3     1     2   ar
     4     2     3   ar
     5     3     4   ar
     6     4     5   ar
     7     5     6   ar
     8     6    10    1
     9    10    11    1
    10    11    12    1
    11    12    13    1
    12    13    16    1
    13    16    17    1
    14    17    18    2
    15    17    19   am
    16    19    20    1
    17    20    21    1
    18    21    22    1
    19    21    23    1
    20    13    14    1
    21    14    15    1
    22     6     7   ar
    23     7     8   ar
    24     8     9   ar
    25     9    27    1
    26    27    28    1
    27    27    29    1
    28    29    30   ar
    29    30    31   ar
    30    31    34    1
    31    34    35   ar
    32    35    36   ar
    33    36    37   ar
    34    37    38    1
    35    37    39   ar
    36    39    40   ar
    37    31    32   ar
    38    32    41    1
    39    41    42    3
    40    32    33   ar
    41     9     1   ar
    42    33    29   ar
    43     8     3   ar
    44    40    34   ar
    45    15    10    1
    46    23    19    1
    47    22    24    1
@<TRIPOS>MOLECULE
*****
 42 47 0 0 0
SMALL
GASTEIGER

@<TRIPOS>ATOM
      1 C         142.6169  144.0695  162.1447 C.ar    1  UNL1        0.0910
      2 N         143.4531  143.7602  160.9384 N.ar    1  UNL1       -0.2295
      3 C         142.5616  143.1418  159.9026 C.ar    1  UNL1        0.1484
      4 C         142.8337  142.6357  158.5171 C.ar    1  UNL1        0.0387
      5 C         141.7187  142.0566  157.6977 C.ar    1  UNL1        0.0191
      6 C         140.3316  141.9837  158.2639 C.ar    1  UNL1        0.0659
      7 C         140.0595  142.4899  159.6494 C.ar    1  UNL1        0.0970
      8 N         141.1745  143.0689  160.4688 N.ar    1  UNL1       -0.2761
      9 C         141.2087  143.6423  161.8544 C.ar    1  UNL1        0.1365
     10 N         139.2166  141.4046  157.4444 N.pl3   1  UNL1       -0.3035
     11 C         139.4840  140.2527  156.5217 C.3     1  UNL1        0.1082
     12 C         138.3690  139.6736  155.7022 C.3     1  UNL1        0.0942
     13 N         136.9865  140.2465  155.8055 N.3     1  UNL1       -0.2620
     14 C         136.7191  141.3985  156.7284 C.3     1  UNL1        0.0942
     15 C         137.8341  141.9775  157.5477 C.3     1  UNL1        0.1082
     16 C         135.8715  139.6675  154.9862 C.3     1  UNL1        0.1587
     17 C         134.5718  140.4055  154.8605 C.2     1  UNL1        0.2422
     18 O         134.3682  141.3804  153.7388 O.2     1  UNL1       -0.2734
     19 N         133.4754  140.1686  155.8565 N.am    1  UNL1       -0.2733
     20 C         132.0865  140.7004  156.0516 C.3     1  UNL1        0.1244
     21 C         131.9250  139.8336  157.2651 C.3     1  UNL1        0.1500
     22 O         130.8288  139.5967  158.2611 O.3     1  UNL1       -0.3810
     23 C         133.3140  139.3018  157.0700 C.3     1  UNL1        0.1244
     24 H         130.0633  140.1486  158.0367 H       1  UNL1        0.2105
     25 C         144.0415  143.9428  164.3136 C.3     1  UNL1        0.0068
     26 C         143.1036  144.6961  163.4177 C.3     1  UNL1        0.0487
     27 N         140.0398  143.7665  162.7862 N.pl3   1  UNL1       -0.2509
     28 C         139.0010  144.8225  162.5497 C.3     1  UNL1        0.1207
     29 C         139.9096  142.8349  163.9545 C.ar    1  UNL1        0.1685
     30 N         140.7116  142.8912  165.2208 N.ar    1  UNL1       -0.2230
     31 C         140.2521  141.7744  166.1106 C.ar    1  UNL1        0.0989
     32 C         139.1661  141.0279  165.3943 C.ar    1  UNL1        0.1179
     33 S         138.9544  141.6833  164.0617 S.2     1  UNL1       -0.0408
     34 C         140.7851  141.4595  167.4769 C.ar    1  UNL1        0.0190
     35 C         140.3103  142.2412  168.6657 C.ar    1  UNL1        0.0038
     36 C         140.8433  141.9262  170.0320 C.ar    1  UNL1        0.0297
     37 C         141.8511  140.8295  170.2095 C.ar    1  UNL1        0.1401
     38 F         142.3841  140.5146  171.5758 F       1  UNL1       -0.2042
     39 C         142.3260  140.0478  169.0206 C.ar    1  UNL1        0.0297
     40 C         141.7930  140.3628  167.6543 C.ar    1  UNL1        0.0038
     41 C         138.4223  139.8353  165.9184 C.1     1  UNL1        0.1086
     42 N         137.6786  138.6427  166.4423 N.1     1  UNL1       -0.1903
@<TRIPOS>BOND
     1    25    26    1
     2    26     1    1
     3     1     2   ar
     4     2     3   ar
     5     3     4   ar
     6     4     5   ar
     7     5     6   ar
     8     6    10    1
     9    10    11    1
    10    11    12    1
    11    12    13    1
    12    13    16    1
    13    16    17    1
    14    17    18    2
    15    17    19   am
    16    19    20    1
    17    20    21    1
    18    21    22    1
    19    21    23    1
    20    13    14    1
    21    14    15    1
    22     6     7   ar
    23     7     8   ar
    24     8     9   ar
    25     9    27    1
    26    27    28    1
    27    27    29    1
    28    29    30   ar
    29    30    31   ar
    30    31    34    1
    31    34    35   ar
    32    35    36   ar
    33    36    37   ar
    34    37    38    1
    35    37    39   ar
    36    39    40   ar
    37    31    32   ar
    38    32    41    1
    39    41    42    3
    40    32    33   ar
    41     9     1   ar
    42    33    29   ar
    43     8     3   ar
    44    40    34   ar
    45    15    10    1
    46    23    19    1
    47    22    24    1
@<TRIPOS>MOLECULE
*****
 42 47 0 0 0
SMALL
GASTEIGER

@<TRIPOS>ATOM
      1 C         143.3058  139.1576  162.0359 C.ar    1  UNL1        0.0910
      2 N         144.0838  139.3561  160.7689 N.ar    1  UNL1       -0.2295
      3 C         143.1106  139.3919  159.6280 C.ar    1  UNL1        0.1484
      4 C         143.3024  139.5624  158.1501 C.ar    1  UNL1        0.0387
      5 C         142.1146  139.5564  157.2342 C.ar    1  UNL1        0.0191
      6 C         140.7350  139.3800  157.7961 C.ar    1  UNL1        0.0659
      7 C         140.5432  139.2096  159.2739 C.ar    1  UNL1        0.0970
      8 N         141.7310  139.2156  160.1899 N.ar    1  UNL1       -0.2761
      9 C         141.8517  139.0708  161.6780 C.ar    1  UNL1        0.1365
     10 N         139.5472  139.3741  156.8800 N.pl3   1  UNL1       -0.3035
     11 C         139.3803  138.2728  155.8754 C.3     1  UNL1        0.1082
     12 C         138.1925  138.2668  154.9593 C.3     1  UNL1        0.0942
     13 N         137.1716  139.3622  155.0479 N.3     1  UNL1       -0.2620
     14 C         137.3385  140.4636  156.0526 C.3     1  UNL1        0.0942
     15 C         138.5263  140.4695  156.9686 C.3     1  UNL1        0.1082
     16 C         135.9838  139.3563  154.1319 C.3     1  UNL1        0.1587
     17 C         134.9165  140.3997  154.2810 C.2     1  UNL1        0.2422
     18 O         134.8861  141.5791  153.3548 O.2     1  UNL1       -0.2734
     19 N         133.8797  140.2637  155.3565 N.am    1  UNL1       -0.2733
     20 C         132.6984  141.0749  155.7997 C.3     1  UNL1        0.1244
     21 C         132.4134  140.0712  156.8774 C.3     1  UNL1        0.1500
     22 O         131.3767  139.9352  157.9528 O.3     1  UNL1       -0.3810
     23 C         133.5947  139.2600  156.4342 C.3     1  UNL1        0.1244
     24 H         130.7668  140.6883  157.9111 H       1  UNL1        0.2105
     25 C         144.8585  140.0949  163.8961 C.3     1  UNL1        0.0068
     26 C         143.8809  139.0627  163.4180 C.3     1  UNL1        0.0487
     27 N         140.7173  138.8737  162.6395 N.pl3   1  UNL1       -0.2509
     28 C         139.8633  137.6437  162.5499 C.3     1  UNL1        0.1207
     29 C         140.4369  139.9064  163.6905 C.ar    1  UNL1        0.1685
     30 N         140.6861  139.7572  165.1620 N.ar    1  UNL1       -0.2230
     31 C         140.2612  141.0284  165.8355 C.ar    1  UNL1        0.0989
     32 C         139.7494  141.9633  164.7801 C.ar    1  UNL1        0.1179
     33 S         139.8579  141.2699  163.4544 S.2     1  UNL1       -0.0408
     34 C         140.3352  141.3144  167.3061 C.ar    1  UNL1        0.0190
     35 C         139.5753  140.4586  168.2757 C.ar    1  UNL1        0.0038
     36 C         139.6493  140.7447  169.7464 C.ar    1  UNL1        0.0297
     37 C         140.4831  141.8865  170.2474 C.ar    1  UNL1        0.1401
     38 F         140.5570  142.1725  171.7180 F       1  UNL1       -0.2042
     39 C         141.2429  142.7422  169.2777 C.ar    1  UNL1        0.0297
     40 C         141.1690  142.4562  167.8071 C.ar    1  UNL1        0.0038
     41 C         139.2216  143.3485  165.0100 C.1     1  UNL1        0.1086
     42 N         138.6937  144.7336  165.2398 N.1     1  UNL1       -0.1903
@<TRIPOS>BOND
     1    25    26    1
     2    26     1    1
     3     1     2   ar
     4     2     3   ar
     5     3     4   ar
     6     4     5   ar
     7     5     6   ar
     8     6    10    1
     9    10    11    1
    10    11    12    1
    11    12    13    1
    12    13    16    1
    13    16    17    1
    14    17    18    2
    15    17    19   am
    16    19    20    1
    17    20    21    1
    18    21    22    1
    19    21    23    1
    20    13    14    1
    21    14    15    1
    22     6     7   ar
    23     7     8   ar
    24     8     9   ar
    25     9    27    1
    26    27    28    1
    27    27    29    1
    28    29    30   ar
    29    30    31   ar
    30    31    34    1
    31    34    35   ar
    32    35    36   ar
    33    36    37   ar
    34    37    38    1
    35    37    39   ar
    36    39    40   ar
    37    31    32   ar
    38    32    41    1
    39    41    42    3
    40    32    33   ar
    41     9     1   ar
    42    33    29   ar
    43     8     3   ar
    44    40    34   ar
    45    15    10    1
    46    23    19    1
    47    22    24    1
