@<TRIPOS>MOLECULE
*****
 34 37 0 0 0
SMALL
GASTEIGER

@<TRIPOS>ATOM
      1 C         141.8823  145.2017  163.9074 C.3     1  UNL1        0.0000
      2 C         140.8252  144.1699  163.6469 C.3     1  UNL1        0.0000
      3 C         140.4510  143.1918  164.7209 C.3     1  UNL1        0.0000
      4 C         139.3940  142.1599  164.4603 C.3     1  UNL1        0.0000
      5 N         138.7111  142.1061  163.1259 N.3     1  UNL1        0.0000
      6 C         139.0852  143.0842  162.0520 C.3     1  UNL1        0.0000
      7 C         140.1423  144.1161  162.3125 C.3     1  UNL1        0.0000
      8 C         140.5165  145.0942  161.2385 C.2     1  UNL1        0.0000
      9 O         139.6120  146.2499  160.9285 O.co2   1  UNL1       -0.5000
     10 O         141.7951  144.9166  160.4747 O.co2   1  UNL1       -0.5000
     11 C         137.6540  141.0743  162.8653 C.3     1  UNL1        0.0000
     12 C         137.7701  140.1649  161.6780 C.3     1  UNL1        0.0000
     13 S         137.9386  138.6880  161.8782 S.3     1  UNL1        0.0000
     14 C         139.0609  138.1694  162.7277 C.ar    1  UNL1        0.0000
     15 C         138.9792  137.8331  164.1872 C.ar    1  UNL1        0.0000
     16 C         140.3297  137.3520  164.6284 C.ar    1  UNL1        0.0000
     17 C         141.2461  137.3909  163.4414 C.ar    1  UNL1        0.0000
     18 SE        140.4619  137.8961  162.2667 Se      1  UNL1        0.0000
     19 C         143.3217  144.8888  163.6245 C.3     1  UNL1        0.0000
     20 C         144.0918  143.9968  164.5527 C.3     1  UNL1        0.0000
     21 O         144.8184  144.5841  165.7262 O.3     1  UNL1        0.0000
     22 H         144.6887  145.5453  165.7388 H       1  UNL1        0.0000
     23 C         142.5929  141.1495  167.6985 C.ar    1  UNL1        0.0000
     24 C         142.6363  139.6703  167.4532 C.ar    1  UNL1        0.0000
     25 C         143.1793  139.1403  166.1592 C.ar    1  UNL1        0.0000
     26 C         143.6789  140.0894  165.1107 C.ar    1  UNL1        0.0000
     27 N         144.2219  139.5593  163.8168 N.ar    1  UNL1        0.0000
     28 C         144.7216  140.5084  162.7682 C.ar    1  UNL1        0.0000
     29 C         144.6782  141.9876  163.0135 C.ar    1  UNL1        0.0000
     30 C         144.1352  142.5177  164.3074 C.ar    1  UNL1        0.0000
     31 C         143.6355  141.5685  165.3560 C.ar    1  UNL1        0.0000
     32 C         143.0925  142.0986  166.6499 C.ar    1  UNL1        0.0000
     33 C         142.9326  142.4779  169.9052 C.3     1  UNL1        0.0000
     34 O         142.0498  141.6795  168.9924 O.3     1  UNL1        0.0000
@<TRIPOS>UNITY_ATOM_ATTR
9 1
charge -1
@<TRIPOS>BOND
     1    33    34    1
     2    34    23    1
     3    23    24   ar
     4    24    25   ar
     5    25    26   ar
     6    26    27   ar
     7    27    28   ar
     8    28    29   ar
     9    29    30   ar
    10    30    20    1
    11    20    21    1
    12    20    19    1
    13    19     1    1
    14     2     1    1
    15     2     3    1
    16     3     4    1
    17     4     5    1
    18     5    11    1
    19    11    12    1
    20    12    13    1
    21    13    14    1
    22    14    15   ar
    23    15    16   ar
    24    16    17   ar
    25    17    18   ar
    26     5     6    1
    27     6     7    1
    28     7     8    1
    29     8     9   ar
    30     8    10   ar
    31    30    31   ar
    32    31    32   ar
    33    32    23   ar
    34    31    26   ar
    35     7     2    1
    36    18    14   ar
    37    21    22    1
@<TRIPOS>MOLECULE
*****
 34 37 0 0 0
SMALL
GASTEIGER

@<TRIPOS>ATOM
      1 C         141.0263  139.6240  167.5178 C.3     1  UNL1        0.0000
      2 C         142.0357  139.9025  166.4439 C.3     1  UNL1        0.0000
      3 C         142.3315  138.8621  165.4045 C.3     1  UNL1        0.0000
      4 C         143.3410  139.1406  164.3306 C.3     1  UNL1        0.0000
      5 N         144.0548  140.4594  164.2960 N.3     1  UNL1        0.0000
      6 C         143.7591  141.4998  165.3353 C.3     1  UNL1        0.0000
      7 C         142.7496  141.2213  166.4093 C.3     1  UNL1        0.0000
      8 C         142.4539  142.2617  167.4486 C.2     1  UNL1        0.0000
      9 O         143.4772  142.5878  168.4956 O.co2   1  UNL1       -0.5000
     10 O         141.1348  142.9759  167.4409 O.co2   1  UNL1       -0.5000
     11 C         145.0643  140.7379  163.2221 C.3     1  UNL1        0.0000
     12 C         144.6148  141.2425  161.8828 C.3     1  UNL1        0.0000
     13 S         144.4662  142.7165  161.6480 S.3     1  UNL1        0.0000
     14 C         143.4202  143.4928  162.3920 C.ar    1  UNL1        0.0000
     15 C         141.9673  143.1359  162.4995 C.ar    1  UNL1        0.0000
     16 C         141.2928  144.1848  163.3330 C.ar    1  UNL1        0.0000
     17 C         142.3288  145.1900  163.7407 C.ar    1  UNL1        0.0000
     18 SE        143.6438  144.7623  163.1591 Se      1  UNL1        0.0000
     19 C         139.6136  140.1037  167.3618 C.3     1  UNL1        0.0000
     20 C         138.6017  139.2426  166.6657 C.3     1  UNL1        0.0000
     21 O         137.5579  138.5182  167.4630 O.3     1  UNL1        0.0000
     22 H         137.6779  138.7133  168.4056 H       1  UNL1        0.0000
     23 C         137.8321  142.8305  164.0610 C.ar    1  UNL1        0.0000
     24 C         137.8640  142.6939  162.5676 C.ar    1  UNL1        0.0000
     25 C         138.1524  141.3612  161.9424 C.ar    1  UNL1        0.0000
     26 C         138.4089  140.1652  162.8106 C.ar    1  UNL1        0.0000
     27 N         138.6973  138.8326  162.1854 N.ar    1  UNL1        0.0000
     28 C         138.9538  137.6366  163.0536 C.ar    1  UNL1        0.0000
     29 C         138.9220  137.7733  164.5471 C.ar    1  UNL1        0.0000
     30 C         138.6336  139.1059  165.1723 C.ar    1  UNL1        0.0000
     31 C         138.3770  140.3019  164.3040 C.ar    1  UNL1        0.0000
     32 C         138.0886  141.6346  164.9292 C.ar    1  UNL1        0.0000
     33 C         138.5970  144.8528  165.5017 C.3     1  UNL1        0.0000
     34 O         137.5437  144.1632  164.6862 O.3     1  UNL1        0.0000
@<TRIPOS>UNITY_ATOM_ATTR
9 1
charge -1
@<TRIPOS>BOND
     1    33    34    1
     2    34    23    1
     3    23    24   ar
     4    24    25   ar
     5    25    26   ar
     6    26    27   ar
     7    27    28   ar
     8    28    29   ar
     9    29    30   ar
    10    30    20    1
    11    20    21    1
    12    20    19    1
    13    19     1    1
    14     2     1    1
    15     2     3    1
    16     3     4    1
    17     4     5    1
    18     5    11    1
    19    11    12    1
    20    12    13    1
    21    13    14    1
    22    14    15   ar
    23    15    16   ar
    24    16    17   ar
    25    17    18   ar
    26     5     6    1
    27     6     7    1
    28     7     8    1
    29     8     9   ar
    30     8    10   ar
    31    30    31   ar
    32    31    32   ar
    33    32    23   ar
    34    31    26   ar
    35     7     2    1
    36    18    14   ar
    37    21    22    1
@<TRIPOS>MOLECULE
*****
 34 37 0 0 0
SMALL
GASTEIGER

@<TRIPOS>ATOM
      1 C         140.6186  145.7545  162.5938 C.3     1  UNL1        0.0000
      2 C         141.7896  144.8172  162.6138 C.3     1  UNL1        0.0000
      3 C         142.5282  144.5671  163.8953 C.3     1  UNL1        0.0000
      4 C         143.6991  143.6298  163.9153 C.3     1  UNL1        0.0000
      5 N         144.1315  142.9427  162.6540 N.3     1  UNL1        0.0000
      6 C         143.3929  143.1928  161.3726 C.3     1  UNL1        0.0000
      7 C         142.2219  144.1301  161.3525 C.3     1  UNL1        0.0000
      8 C         141.4834  144.3802  160.0712 C.2     1  UNL1        0.0000
      9 O         140.2652  143.5712  159.7375 O.co2   1  UNL1       -0.5000
     10 O         141.9631  145.4393  159.1234 O.co2   1  UNL1       -0.5000
     11 C         145.3024  142.0054  162.6741 C.3     1  UNL1        0.0000
     12 C         145.6183  141.2263  163.9164 C.3     1  UNL1        0.0000
     13 S         144.9257  139.9222  164.1802 S.3     1  UNL1        0.0000
     14 C         143.6538  139.5889  163.4581 C.ar    1  UNL1        0.0000
     15 C         142.2920  140.1326  163.7741 C.ar    1  UNL1        0.0000
     16 C         141.3171  139.5331  162.8045 C.ar    1  UNL1        0.0000
     17 C         142.0764  138.6189  161.8892 C.ar    1  UNL1        0.0000
     18 SE        143.5207  138.6534  162.2931 Se      1  UNL1        0.0000
     19 C         139.2288  145.2223  162.7809 C.3     1  UNL1        0.0000
     20 C         138.8433  144.5701  164.0755 C.3     1  UNL1        0.0000
     21 O         138.7332  145.3918  165.3256 O.3     1  UNL1        0.0000
     22 H         138.9421  146.3172  165.1237 H       1  UNL1        0.0000
     23 C         140.5849  142.0546  167.3754 C.ar    1  UNL1        0.0000
     24 C         140.3096  140.5808  167.4199 C.ar    1  UNL1        0.0000
     25 C         139.4538  139.9455  166.3645 C.ar    1  UNL1        0.0000
     26 C         138.8733  140.7839  165.2646 C.ar    1  UNL1        0.0000
     27 N         138.0175  140.1486  164.2091 N.ar    1  UNL1        0.0000
     28 C         137.4369  140.9870  163.1092 C.ar    1  UNL1        0.0000
     29 C         137.7122  142.4609  163.0646 C.ar    1  UNL1        0.0000
     30 C         138.5680  143.0963  164.1201 C.ar    1  UNL1        0.0000
     31 C         139.1486  142.2577  165.2200 C.ar    1  UNL1        0.0000
     32 C         140.0044  142.8931  166.2755 C.ar    1  UNL1        0.0000
     33 C         140.8020  143.4098  169.5813 C.3     1  UNL1        0.0000
     34 O         141.4407  142.6900  168.4308 O.3     1  UNL1        0.0000
@<TRIPOS>UNITY_ATOM_ATTR
9 1
charge -1
@<TRIPOS>BOND
     1    33    34    1
     2    34    23    1
     3    23    24   ar
     4    24    25   ar
     5    25    26   ar
     6    26    27   ar
     7    27    28   ar
     8    28    29   ar
     9    29    30   ar
    10    30    20    1
    11    20    21    1
    12    20    19    1
    13    19     1    1
    14     2     1    1
    15     2     3    1
    16     3     4    1
    17     4     5    1
    18     5    11    1
    19    11    12    1
    20    12    13    1
    21    13    14    1
    22    14    15   ar
    23    15    16   ar
    24    16    17   ar
    25    17    18   ar
    26     5     6    1
    27     6     7    1
    28     7     8    1
    29     8     9   ar
    30     8    10   ar
    31    30    31   ar
    32    31    32   ar
    33    32    23   ar
    34    31    26   ar
    35     7     2    1
    36    18    14   ar
    37    21    22    1
@<TRIPOS>MOLECULE
*****
 34 37 0 0 0
SMALL
GASTEIGER

@<TRIPOS>ATOM
      1 C         143.4702  144.7379  163.0846 C.3     1  UNL1        0.0000
      2 C         142.0701  144.2433  162.8721 C.3     1  UNL1        0.0000
      3 C         141.0298  144.4585  163.9311 C.3     1  UNL1        0.0000
      4 C         139.6297  143.9639  163.7186 C.3     1  UNL1        0.0000
      5 N         139.2700  143.2541  162.4471 N.3     1  UNL1        0.0000
      6 C         140.3102  143.0389  161.3881 C.3     1  UNL1        0.0000
      7 C         141.7103  143.5335  161.6006 C.3     1  UNL1        0.0000
      8 C         142.7506  143.3184  160.5416 C.2     1  UNL1        0.0000
      9 O         143.7648  142.2243  160.6978 O.co2   1  UNL1       -0.5000
     10 O         142.7767  144.1973  159.3263 O.co2   1  UNL1       -0.5000
     11 C         137.8699  142.7595  162.2345 C.3     1  UNL1        0.0000
     12 C         137.4749  141.3954  162.7175 C.3     1  UNL1        0.0000
     13 S         138.5083  140.3152  162.8412 S.3     1  UNL1        0.0000
     14 C         138.5082  139.4105  164.0377 C.ar    1  UNL1        0.0000
     15 C         138.0691  139.7812  165.4233 C.ar    1  UNL1        0.0000
     16 C         138.2366  138.5761  166.3006 C.ar    1  UNL1        0.0000
     17 C         138.7793  137.4605  165.4572 C.ar    1  UNL1        0.0000
     18 SE        138.9471  137.9763  164.0586 Se      1  UNL1        0.0000
     19 C         143.9495  145.0605  164.4688 C.3     1  UNL1        0.0000
     20 C         144.6638  144.0181  165.2772 C.3     1  UNL1        0.0000
     21 O         145.5494  144.4289  166.4160 O.3     1  UNL1        0.0000
     22 H         145.5492  145.3958  166.4934 H       1  UNL1        0.0000
     23 C         141.5799  141.5649  167.4499 C.ar    1  UNL1        0.0000
     24 C         141.4086  140.1118  167.1193 C.ar    1  UNL1        0.0000
     25 C         142.2652  139.4765  166.0645 C.ar    1  UNL1        0.0000
     26 C         143.2932  140.2943  165.3403 C.ar    1  UNL1        0.0000
     27 N         144.1498  139.6590  164.2855 N.ar    1  UNL1        0.0000
     28 C         145.1778  140.4767  163.5613 C.ar    1  UNL1        0.0000
     29 C         145.3491  141.9298  163.8918 C.ar    1  UNL1        0.0000
     30 C         144.4925  142.5651  164.9466 C.ar    1  UNL1        0.0000
     31 C         143.4645  141.7473  165.6709 C.ar    1  UNL1        0.0000
     32 C         142.6079  142.3826  166.7257 C.ar    1  UNL1        0.0000
     33 C         141.0231  141.9662  169.9556 C.3     1  UNL1        0.0000
     34 O         140.7233  142.2002  168.5047 O.3     1  UNL1        0.0000
@<TRIPOS>UNITY_ATOM_ATTR
9 1
charge -1
@<TRIPOS>BOND
     1    33    34    1
     2    34    23    1
     3    23    24   ar
     4    24    25   ar
     5    25    26   ar
     6    26    27   ar
     7    27    28   ar
     8    28    29   ar
     9    29    30   ar
    10    30    20    1
    11    20    21    1
    12    20    19    1
    13    19     1    1
    14     2     1    1
    15     2     3    1
    16     3     4    1
    17     4     5    1
    18     5    11    1
    19    11    12    1
    20    12    13    1
    21    13    14    1
    22    14    15   ar
    23    15    16   ar
    24    16    17   ar
    25    17    18   ar
    26     5     6    1
    27     6     7    1
    28     7     8    1
    29     8     9   ar
    30     8    10   ar
    31    30    31   ar
    32    31    32   ar
    33    32    23   ar
    34    31    26   ar
    35     7     2    1
    36    18    14   ar
    37    21    22    1
@<TRIPOS>MOLECULE
*****
 34 37 0 0 0
SMALL
GASTEIGER

@<TRIPOS>ATOM
      1 C         137.5217  143.0639  163.1720 C.3     1  UNL1        0.0000
      2 C         138.3434  141.8184  163.0186 C.3     1  UNL1        0.0000
      3 C         138.2136  140.7065  164.0171 C.3     1  UNL1        0.0000
      4 C         139.0353  139.4610  163.8637 C.3     1  UNL1        0.0000
      5 N         139.9869  139.3274  162.7119 N.3     1  UNL1        0.0000
      6 C         140.1168  140.4393  161.7135 C.3     1  UNL1        0.0000
      7 C         139.2950  141.6848  161.8669 C.3     1  UNL1        0.0000
      8 C         139.4249  142.7967  160.8685 C.2     1  UNL1        0.0000
      9 O         140.6818  143.6136  160.8150 O.co2   1  UNL1       -0.5000
     10 O         138.2980  143.0916  159.9235 O.co2   1  UNL1       -0.5000
     11 C         140.8086  138.0820  162.5586 C.3     1  UNL1        0.0000
     12 C         142.2830  138.1831  162.3013 C.3     1  UNL1        0.0000
     13 S         143.2065  138.6292  163.3959 S.3     1  UNL1        0.0000
     14 C         144.0949  139.8200  163.1889 C.ar    1  UNL1        0.0000
     15 C         145.1956  140.2685  164.1039 C.ar    1  UNL1        0.0000
     16 C         145.8195  141.4971  163.5111 C.ar    1  UNL1        0.0000
     17 C         145.1042  141.8080  162.2297 C.ar    1  UNL1        0.0000
     18 SE        144.0383  140.7714  162.0306 Se      1  UNL1        0.0000
     19 C         138.1969  144.3868  163.3812 C.3     1  UNL1        0.0000
     20 C         138.9983  144.6314  164.6255 C.3     1  UNL1        0.0000
     21 O         138.3346  145.1973  165.8459 O.3     1  UNL1        0.0000
     22 H         137.3938  145.3463  165.6626 H       1  UNL1        0.0000
     23 C         140.5138  141.2245  167.1447 C.ar    1  UNL1        0.0000
     24 C         141.9787  140.9032  167.1685 C.ar    1  UNL1        0.0000
     25 C         142.9385  141.7175  166.3526 C.ar    1  UNL1        0.0000
     26 C         142.4334  142.8532  165.5129 C.ar    1  UNL1        0.0000
     27 N         143.3932  143.6675  164.6971 N.ar    1  UNL1        0.0000
     28 C         142.8881  144.8031  163.8574 C.ar    1  UNL1        0.0000
     29 C         141.4230  145.1244  163.8335 C.ar    1  UNL1        0.0000
     30 C         140.4632  144.3101  164.6493 C.ar    1  UNL1        0.0000
     31 C         140.9684  143.1744  165.4891 C.ar    1  UNL1        0.0000
     32 C         140.0086  142.3601  166.3050 C.ar    1  UNL1        0.0000
     33 C         139.5154  140.5681  169.4517 C.3     1  UNL1        0.0000
     34 O         139.5539  140.4102  167.9605 O.3     1  UNL1        0.0000
@<TRIPOS>UNITY_ATOM_ATTR
9 1
charge -1
@<TRIPOS>BOND
     1    33    34    1
     2    34    23    1
     3    23    24   ar
     4    24    25   ar
     5    25    26   ar
     6    26    27   ar
     7    27    28   ar
     8    28    29   ar
     9    29    30   ar
    10    30    20    1
    11    20    21    1
    12    20    19    1
    13    19     1    1
    14     2     1    1
    15     2     3    1
    16     3     4    1
    17     4     5    1
    18     5    11    1
    19    11    12    1
    20    12    13    1
    21    13    14    1
    22    14    15   ar
    23    15    16   ar
    24    16    17   ar
    25    17    18   ar
    26     5     6    1
    27     6     7    1
    28     7     8    1
    29     8     9   ar
    30     8    10   ar
    31    30    31   ar
    32    31    32   ar
    33    32    23   ar
    34    31    26   ar
    35     7     2    1
    36    18    14   ar
    37    21    22    1
@<TRIPOS>MOLECULE
*****
 34 37 0 0 0
SMALL
GASTEIGER

@<TRIPOS>ATOM
      1 C         143.1646  142.4153  167.5703 C.3     1  UNL1        0.0000
      2 C         143.3803  141.6318  166.3095 C.3     1  UNL1        0.0000
      3 C         143.0281  140.1745  166.2626 C.3     1  UNL1        0.0000
      4 C         143.2438  139.3910  165.0018 C.3     1  UNL1        0.0000
      5 N         143.8116  140.0648  163.7879 N.3     1  UNL1        0.0000
      6 C         144.1638  141.5221  163.8348 C.3     1  UNL1        0.0000
      7 C         143.9481  142.3057  165.0956 C.3     1  UNL1        0.0000
      8 C         144.3003  143.7629  165.1425 C.2     1  UNL1        0.0000
      9 O         145.3600  144.2484  166.0866 O.co2   1  UNL1       -0.5000
     10 O         143.5928  144.7348  164.2453 O.co2   1  UNL1       -0.5000
     11 C         144.0273  139.2813  162.5271 C.3     1  UNL1        0.0000
     12 C         143.0388  139.3817  161.4033 C.3     1  UNL1        0.0000
     13 S         141.7120  140.0441  161.6285 S.3     1  UNL1        0.0000
     14 C         140.4920  139.2108  161.8882 C.ar    1  UNL1        0.0000
     15 C         140.2863  138.2877  163.0524 C.ar    1  UNL1        0.0000
     16 C         138.9308  137.6607  162.9130 C.ar    1  UNL1        0.0000
     17 C         138.2987  138.1965  161.6626 C.ar    1  UNL1        0.0000
     18 SE        139.2636  139.1545  161.0292 Se      1  UNL1        0.0000
     19 C         142.1974  141.9206  168.6045 C.3     1  UNL1        0.0000
     20 C         140.7315  142.2017  168.4558 C.3     1  UNL1        0.0000
     21 O         140.1005  143.3216  169.2289 O.3     1  UNL1        0.0000
     22 H         140.7743  143.7593  169.7723 H       1  UNL1        0.0000
     23 C         139.7376  143.7002  164.3307 C.ar    1  UNL1        0.0000
     24 C         138.9027  142.8615  163.4091 C.ar    1  UNL1        0.0000
     25 C         138.3992  141.5232  163.8624 C.ar    1  UNL1        0.0000
     26 C         138.7305  141.0237  165.2374 C.ar    1  UNL1        0.0000
     27 N         138.2269  139.6855  165.6908 N.ar    1  UNL1        0.0000
     28 C         138.5582  139.1860  167.0658 C.ar    1  UNL1        0.0000
     29 C         139.3931  140.0247  167.9875 C.ar    1  UNL1        0.0000
     30 C         139.8966  141.3630  167.5342 C.ar    1  UNL1        0.0000
     31 C         139.5653  141.8625  166.1591 C.ar    1  UNL1        0.0000
     32 C         140.0689  143.2007  165.7057 C.ar    1  UNL1        0.0000
     33 C         140.5321  145.2778  162.4255 C.3     1  UNL1        0.0000
     34 O         140.2411  145.0385  163.8774 O.3     1  UNL1        0.0000
@<TRIPOS>UNITY_ATOM_ATTR
9 1
charge -1
@<TRIPOS>BOND
     1    33    34    1
     2    34    23    1
     3    23    24   ar
     4    24    25   ar
     5    25    26   ar
     6    26    27   ar
     7    27    28   ar
     8    28    29   ar
     9    29    30   ar
    10    30    20    1
    11    20    21    1
    12    20    19    1
    13    19     1    1
    14     2     1    1
    15     2     3    1
    16     3     4    1
    17     4     5    1
    18     5    11    1
    19    11    12    1
    20    12    13    1
    21    13    14    1
    22    14    15   ar
    23    15    16   ar
    24    16    17   ar
    25    17    18   ar
    26     5     6    1
    27     6     7    1
    28     7     8    1
    29     8     9   ar
    30     8    10   ar
    31    30    31   ar
    32    31    32   ar
    33    32    23   ar
    34    31    26   ar
    35     7     2    1
    36    18    14   ar
    37    21    22    1
@<TRIPOS>MOLECULE
*****
 34 37 0 0 0
SMALL
GASTEIGER

@<TRIPOS>ATOM
      1 C         138.8940  144.7156  164.4309 C.3     1  UNL1        0.0000
      2 C         140.2859  144.2530  164.1167 C.3     1  UNL1        0.0000
      3 C         141.0733  143.4934  165.1429 C.3     1  UNL1        0.0000
      4 C         142.4651  143.0307  164.8287 C.3     1  UNL1        0.0000
      5 N         143.0696  143.3276  163.4883 N.3     1  UNL1        0.0000
      6 C         142.2822  144.0872  162.4622 C.3     1  UNL1        0.0000
      7 C         140.8903  144.5499  162.7763 C.3     1  UNL1        0.0000
      8 C         140.1029  145.3094  161.7502 C.2     1  UNL1        0.0000
      9 O         139.5073  144.5885  160.5773 O.co2   1  UNL1       -0.5000
     10 O         139.9111  146.7898  161.8968 O.co2   1  UNL1       -0.5000
     11 C         144.4614  142.8650  163.1741 C.3     1  UNL1        0.0000
     12 C         144.7217  142.0555  161.9384 C.3     1  UNL1        0.0000
     13 S         144.4583  140.5788  161.9398 S.3     1  UNL1        0.0000
     14 C         143.9613  139.9068  163.1853 C.ar    1  UNL1        0.0000
     15 C         144.7959  139.5131  164.3679 C.ar    1  UNL1        0.0000
     16 C         143.8928  138.8735  165.3804 C.ar    1  UNL1        0.0000
     17 C         142.4999  138.8718  164.8236 C.ar    1  UNL1        0.0000
     18 SE        142.5422  139.5105  163.4669 Se      1  UNL1        0.0000
     19 C         137.7391  143.7691  164.2888 C.3     1  UNL1        0.0000
     20 C         137.7586  142.7171  163.2196 C.3     1  UNL1        0.0000
     21 O         137.4204  143.0802  161.8041 O.3     1  UNL1        0.0000
     22 H         137.2147  144.0268  161.7534 H       1  UNL1        0.0000
     23 C         138.9495  139.8381  159.9726 C.ar    1  UNL1        0.0000
     24 C         139.3072  138.4232  160.3190 C.ar    1  UNL1        0.0000
     25 C         139.2680  137.9680  161.7477 C.ar    1  UNL1        0.0000
     26 C         138.8710  138.9276  162.8300 C.ar    1  UNL1        0.0000
     27 N         138.8318  138.4723  164.2587 N.ar    1  UNL1        0.0000
     28 C         138.4348  139.4320  165.3411 C.ar    1  UNL1        0.0000
     29 C         138.0771  140.8470  164.9947 C.ar    1  UNL1        0.0000
     30 C         138.1163  141.3022  163.5660 C.ar    1  UNL1        0.0000
     31 C         138.5133  140.3425  162.4837 C.ar    1  UNL1        0.0000
     32 C         138.5526  140.7978  161.0550 C.ar    1  UNL1        0.0000
     33 C         137.7859  140.9480  157.9321 C.3     1  UNL1        0.0000
     34 O         138.9888  140.2934  158.5439 O.3     1  UNL1        0.0000
@<TRIPOS>UNITY_ATOM_ATTR
9 1
charge -1
@<TRIPOS>BOND
     1    33    34    1
     2    34    23    1
     3    23    24   ar
     4    24    25   ar
     5    25    26   ar
     6    26    27   ar
     7    27    28   ar
     8    28    29   ar
     9    29    30   ar
    10    30    20    1
    11    20    21    1
    12    20    19    1
    13    19     1    1
    14     2     1    1
    15     2     3    1
    16     3     4    1
    17     4     5    1
    18     5    11    1
    19    11    12    1
    20    12    13    1
    21    13    14    1
    22    14    15   ar
    23    15    16   ar
    24    16    17   ar
    25    17    18   ar
    26     5     6    1
    27     6     7    1
    28     7     8    1
    29     8     9   ar
    30     8    10   ar
    31    30    31   ar
    32    31    32   ar
    33    32    23   ar
    34    31    26   ar
    35     7     2    1
    36    18    14   ar
    37    21    22    1
@<TRIPOS>MOLECULE
*****
 34 37 0 0 0
SMALL
GASTEIGER

@<TRIPOS>ATOM
      1 C         138.2359  138.3821  162.4612 C.3     1  UNL1        0.0000
      2 C         138.1408  139.7938  162.9592 C.3     1  UNL1        0.0000
      3 C         137.8225  140.9061  162.0044 C.3     1  UNL1        0.0000
      4 C         137.7273  142.3178  162.5024 C.3     1  UNL1        0.0000
      5 N         137.9504  142.6172  163.9552 N.3     1  UNL1        0.0000
      6 C         138.2687  141.5050  164.9099 C.3     1  UNL1        0.0000
      7 C         138.3639  140.0933  164.4120 C.3     1  UNL1        0.0000
      8 C         138.6822  138.9810  165.3667 C.2     1  UNL1        0.0000
      9 O         137.6377  138.4955  166.3275 O.co2   1  UNL1       -0.5000
     10 O         140.0450  138.3544  165.3607 O.co2   1  UNL1       -0.5000
     11 C         137.8553  144.0289  164.4532 C.3     1  UNL1        0.0000
     12 C         139.0925  144.7541  164.8932 C.3     1  UNL1        0.0000
     13 S         140.3913  144.5225  164.1795 S.3     1  UNL1        0.0000
     14 C         140.4664  144.6773  162.6894 C.ar    1  UNL1        0.0000
     15 C         140.9985  143.6610  161.7230 C.ar    1  UNL1        0.0000
     16 C         140.8834  144.2313  160.3404 C.ar    1  UNL1        0.0000
     17 C         140.2802  145.6001  160.4523 C.ar    1  UNL1        0.0000
     18 SE        140.0224  145.8758  161.9041 Se      1  UNL1        0.0000
     19 C         139.2544  138.0209  161.4209 C.3     1  UNL1        0.0000
     20 C         140.6978  137.8764  161.8027 C.3     1  UNL1        0.0000
     21 O         141.0956  136.9118  162.8803 O.3     1  UNL1        0.0000
     22 H         140.3052  136.4660  163.2231 H       1  UNL1        0.0000
     23 C         142.7762  141.2073  164.0016 C.ar    1  UNL1        0.0000
     24 C         143.8217  142.0275  163.3058 C.ar    1  UNL1        0.0000
     25 C         144.1745  141.7373  161.8771 C.ar    1  UNL1        0.0000
     26 C         143.4817  140.6270  161.1441 C.ar    1  UNL1        0.0000
     27 N         143.8345  140.3369  159.7153 N.ar    1  UNL1        0.0000
     28 C         143.1417  139.2266  158.9824 C.ar    1  UNL1        0.0000
     29 C         142.0961  138.4064  159.6781 C.ar    1  UNL1        0.0000
     30 C         141.7433  138.6965  161.1069 C.ar    1  UNL1        0.0000
     31 C         142.4362  139.8069  161.8399 C.ar    1  UNL1        0.0000
     32 C         142.0834  140.0970  163.2686 C.ar    1  UNL1        0.0000
     33 C         143.2818  142.4218  166.2420 C.3     1  UNL1        0.0000
     34 O         142.4234  141.4975  165.4304 O.3     1  UNL1        0.0000
@<TRIPOS>UNITY_ATOM_ATTR
9 1
charge -1
@<TRIPOS>BOND
     1    33    34    1
     2    34    23    1
     3    23    24   ar
     4    24    25   ar
     5    25    26   ar
     6    26    27   ar
     7    27    28   ar
     8    28    29   ar
     9    29    30   ar
    10    30    20    1
    11    20    21    1
    12    20    19    1
    13    19     1    1
    14     2     1    1
    15     2     3    1
    16     3     4    1
    17     4     5    1
    18     5    11    1
    19    11    12    1
    20    12    13    1
    21    13    14    1
    22    14    15   ar
    23    15    16   ar
    24    16    17   ar
    25    17    18   ar
    26     5     6    1
    27     6     7    1
    28     7     8    1
    29     8     9   ar
    30     8    10   ar
    31    30    31   ar
    32    31    32   ar
    33    32    23   ar
    34    31    26   ar
    35     7     2    1
    36    18    14   ar
    37    21    22    1
@<TRIPOS>MOLECULE
*****
 34 37 0 0 0
SMALL
GASTEIGER

@<TRIPOS>ATOM
      1 C         140.3307  142.8199  166.9627 C.3     1  UNL1        0.0000
      2 C         140.7826  143.2520  165.5992 C.3     1  UNL1        0.0000
      3 C         142.1507  142.8796  165.1095 C.3     1  UNL1        0.0000
      4 C         142.6025  143.3117  163.7460 C.3     1  UNL1        0.0000
      5 N         141.6864  144.1163  162.8723 N.3     1  UNL1        0.0000
      6 C         140.3184  144.4887  163.3620 C.3     1  UNL1        0.0000
      7 C         139.8665  144.0566  164.7255 C.3     1  UNL1        0.0000
      8 C         138.4985  144.4290  165.2152 C.2     1  UNL1        0.0000
      9 O         138.3375  145.5164  166.2358 O.co2   1  UNL1       -0.5000
     10 O         137.2914  143.7140  164.6843 O.co2   1  UNL1       -0.5000
     11 C         142.1382  144.5484  161.5088 C.3     1  UNL1        0.0000
     12 C         141.2860  144.2576  160.3091 C.3     1  UNL1        0.0000
     13 S         140.9075  142.8432  159.9831 S.3     1  UNL1        0.0000
     14 C         139.9138  142.1162  160.8399 C.ar    1  UNL1        0.0000
     15 C         140.2311  141.0526  161.8489 C.ar    1  UNL1        0.0000
     16 C         138.9418  140.6043  162.4708 C.ar    1  UNL1        0.0000
     17 C         137.8277  141.3908  161.8461 C.ar    1  UNL1        0.0000
     18 SE        138.4285  142.3252  160.8381 Se      1  UNL1        0.0000
     19 C         141.2924  142.1384  167.8904 C.3     1  UNL1        0.0000
     20 C         141.2232  140.6523  168.0831 C.3     1  UNL1        0.0000
     21 O         141.9602  140.0084  169.2198 O.3     1  UNL1        0.0000
     22 H         142.4272  140.6890  169.7293 H       1  UNL1        0.0000
     23 C         143.1709  138.8586  164.4446 C.ar    1  UNL1        0.0000
     24 C         142.3647  138.0167  163.5006 C.ar    1  UNL1        0.0000
     25 C         140.9093  137.7726  163.7694 C.ar    1  UNL1        0.0000
     26 C         140.2601  138.3705  164.9822 C.ar    1  UNL1        0.0000
     27 N         138.8047  138.1264  165.2510 N.ar    1  UNL1        0.0000
     28 C         138.1555  138.7243  166.4639 C.ar    1  UNL1        0.0000
     29 C         138.9616  139.5663  167.4079 C.ar    1  UNL1        0.0000
     30 C         140.4170  139.8104  167.1391 C.ar    1  UNL1        0.0000
     31 C         141.0662  139.2124  165.9262 C.ar    1  UNL1        0.0000
     32 C         142.5216  139.4565  165.6574 C.ar    1  UNL1        0.0000
     33 C         145.1238  140.5001  163.9532 C.3     1  UNL1        0.0000
     34 O         144.6263  139.1027  164.1757 O.3     1  UNL1        0.0000
@<TRIPOS>UNITY_ATOM_ATTR
9 1
charge -1
@<TRIPOS>BOND
     1    33    34    1
     2    34    23    1
     3    23    24   ar
     4    24    25   ar
     5    25    26   ar
     6    26    27   ar
     7    27    28   ar
     8    28    29   ar
     9    29    30   ar
    10    30    20    1
    11    20    21    1
    12    20    19    1
    13    19     1    1
    14     2     1    1
    15     2     3    1
    16     3     4    1
    17     4     5    1
    18     5    11    1
    19    11    12    1
    20    12    13    1
    21    13    14    1
    22    14    15   ar
    23    15    16   ar
    24    16    17   ar
    25    17    18   ar
    26     5     6    1
    27     6     7    1
    28     7     8    1
    29     8     9   ar
    30     8    10   ar
    31    30    31   ar
    32    31    32   ar
    33    32    23   ar
    34    31    26   ar
    35     7     2    1
    36    18    14   ar
    37    21    22    1
