@<TRIPOS>MOLECULE
*****
 27 30 0 0 0
SMALL
GASTEIGER

@<TRIPOS>ATOM
      1 C         141.8383  141.4797  165.5662 C.3     1  UNL1        0.0360
      2 C         142.5681  140.2553  166.0333 C.ar    1  UNL1        0.0361
      3 C         142.6730  139.7788  167.4517 C.ar    1  UNL1        0.1211
      4 N         143.4909  138.5214  167.4591 N.ar    1  UNL1       -0.0772
      5 O         143.8915  138.2208  166.0452 O.2     1  UNL1       -0.3537
      6 C         143.3212  139.2924  165.1640 C.ar    1  UNL1        0.1728
      7 C         143.4767  139.3849  163.6749 C.ar    1  UNL1        0.0367
      8 C         144.3625  140.4375  163.0772 C.ar    1  UNL1        0.0032
      9 C         144.5180  140.5299  161.5882 C.ar    1  UNL1        0.0044
     10 C         143.7876  139.5696  160.6969 C.ar    1  UNL1        0.0512
     11 C         142.9018  138.5170  161.2945 C.ar    1  UNL1        0.0022
     12 C         142.7464  138.4246  162.7836 C.ar    1  UNL1        0.0006
     13 C         142.3125  137.7152  160.1721 C.3     1  UNL1        0.1205
     14 N         142.8340  138.2723  158.8808 N.am    1  UNL1       -0.2736
     15 C         143.7458  139.4184  159.2050 C.2     1  UNL1        0.2490
     16 O         144.4857  140.2647  158.2119 O.2     1  UNL1       -0.2699
     17 C         142.5021  137.7712  157.5064 C.3     1  UNL1        0.0761
     18 C         141.8301  138.6789  156.5192 C.3     1  UNL1        0.0215
     19 C         142.8422  136.3625  157.1193 C.3     1  UNL1        0.0215
     20 C         142.0665  140.4431  168.6521 C.ar    1  UNL1        0.0482
     21 C         140.9278  139.7883  169.3763 C.ar    1  UNL1        0.0061
     22 C         140.3212  140.4526  170.5767 C.ar    1  UNL1        0.0298
     23 C         140.8534  141.7716  171.0528 C.ar    1  UNL1        0.1424
     24 F         140.2469  142.4359  172.2532 F       1  UNL1       -0.2041
     25 C         141.9922  142.4265  170.3286 C.ar    1  UNL1        0.0593
     26 C         142.5986  141.7622  169.1283 C.ar    1  UNL1        0.1439
     27 F         143.7374  142.4171  168.4040 F       1  UNL1       -0.2040
@<TRIPOS>BOND
     1     1     2    1
     2     2     3   ar
     3     3    20    1
     4    20    21   ar
     5    21    22   ar
     6    22    23   ar
     7    23    24    1
     8    23    25   ar
     9    25    26   ar
    10    26    27    1
    11     3     4   ar
    12     4     5   ar
    13     5     6   ar
    14     6     7    1
    15     7     8   ar
    16     8     9   ar
    17     9    10   ar
    18    10    11   ar
    19    11    12   ar
    20    11    13    1
    21    13    14    1
    22    14    17    1
    23    17    18    1
    24    17    19    1
    25    14    15   am
    26    15    16    2
    27     6     2   ar
    28    12     7   ar
    29    26    20   ar
    30    15    10    1
@<TRIPOS>MOLECULE
*****
 27 30 0 0 0
SMALL
GASTEIGER

@<TRIPOS>ATOM
      1 C         141.2892  142.1512  164.9575 C.3     1  UNL1        0.0360
      2 C         140.3988  141.1600  165.6464 C.ar    1  UNL1        0.0361
      3 C         140.3138  140.9307  167.1264 C.ar    1  UNL1        0.1211
      4 N         139.2996  139.8530  167.3710 N.ar    1  UNL1       -0.0772
      5 O         138.7578  139.4162  166.0422 O.2     1  UNL1       -0.3537
      6 C         139.4371  140.2239  164.9764 C.ar    1  UNL1        0.1728
      7 C         139.1969  140.1148  163.4997 C.ar    1  UNL1        0.0367
      8 C         137.9352  140.6637  162.9025 C.ar    1  UNL1        0.0032
      9 C         137.6951  140.5545  161.4259 C.ar    1  UNL1        0.0044
     10 C         138.7166  139.8964  160.5466 C.ar    1  UNL1        0.0512
     11 C         139.9783  139.3475  161.1438 C.ar    1  UNL1        0.0022
     12 C         140.2185  139.4567  162.6204 C.ar    1  UNL1        0.0006
     13 C         140.7973  138.7566  160.0347 C.3     1  UNL1        0.1205
     14 N         140.0417  138.9403  158.7519 N.am    1  UNL1       -0.2736
     15 C         138.7557  139.6448  159.0683 C.2     1  UNL1        0.2490
     16 O         137.6952  140.0300  158.0800 O.2     1  UNL1       -0.2699
     17 C         140.4928  138.4973  157.3917 C.3     1  UNL1        0.0761
     18 C         139.6649  137.5230  156.6073 C.3     1  UNL1        0.0215
     19 C         141.7720  139.0286  156.8158 C.3     1  UNL1        0.0215
     20 C         141.1043  141.6525  168.1772 C.ar    1  UNL1        0.0482
     21 C         140.5090  142.8340  168.8840 C.ar    1  UNL1        0.0061
     22 C         141.2995  143.5558  169.9348 C.ar    1  UNL1        0.0298
     23 C         142.6852  143.0960  170.2788 C.ar    1  UNL1        0.1424
     24 F         143.4756  143.8178  171.3296 F       1  UNL1       -0.2041
     25 C         143.2805  141.9144  169.5720 C.ar    1  UNL1        0.0593
     26 C         142.4900  141.1927  168.5212 C.ar    1  UNL1        0.1439
     27 F         143.0853  140.0111  167.8143 F       1  UNL1       -0.2040
@<TRIPOS>BOND
     1     1     2    1
     2     2     3   ar
     3     3    20    1
     4    20    21   ar
     5    21    22   ar
     6    22    23   ar
     7    23    24    1
     8    23    25   ar
     9    25    26   ar
    10    26    27    1
    11     3     4   ar
    12     4     5   ar
    13     5     6   ar
    14     6     7    1
    15     7     8   ar
    16     8     9   ar
    17     9    10   ar
    18    10    11   ar
    19    11    12   ar
    20    11    13    1
    21    13    14    1
    22    14    17    1
    23    17    18    1
    24    17    19    1
    25    14    15   am
    26    15    16    2
    27     6     2   ar
    28    12     7   ar
    29    26    20   ar
    30    15    10    1
@<TRIPOS>MOLECULE
*****
 27 30 0 0 0
SMALL
GASTEIGER

@<TRIPOS>ATOM
      1 C         140.6425  142.0423  160.9022 C.3     1  UNL1        0.0360
      2 C         140.0385  143.3438  161.3394 C.ar    1  UNL1        0.0361
      3 C         139.9401  144.5918  160.5130 C.ar    1  UNL1        0.1211
      4 N         139.2677  145.6453  161.3426 N.ar    1  UNL1       -0.0772
      5 O         138.9505  145.0483  162.6816 O.2     1  UNL1       -0.3537
      6 C         139.4269  143.6260  162.6797 C.ar    1  UNL1        0.1728
      7 C         139.3118  142.6560  163.8182 C.ar    1  UNL1        0.0367
      8 C         138.2207  141.6268  163.8192 C.ar    1  UNL1        0.0032
      9 C         138.1057  140.6569  164.9576 C.ar    1  UNL1        0.0044
     10 C         139.0818  140.7163  166.0950 C.ar    1  UNL1        0.0512
     11 C         140.1729  141.7456  166.0940 C.ar    1  UNL1        0.0022
     12 C         140.2879  142.7154  164.9555 C.ar    1  UNL1        0.0006
     13 C         140.9829  141.5636  167.3433 C.3     1  UNL1        0.1205
     14 N         140.3923  140.4220  168.1165 N.am    1  UNL1       -0.2736
     15 C         139.2174  139.8983  167.3451 C.2     1  UNL1        0.2490
     16 O         138.3332  138.7569  167.7521 O.2     1  UNL1       -0.2699
     17 C         140.8895  139.8963  169.4305 C.3     1  UNL1        0.0761
     18 C         140.0148  139.9692  170.6469 C.3     1  UNL1        0.0215
     19 C         142.2614  139.2977  169.5281 C.3     1  UNL1        0.0215
     20 C         140.4285  144.7573  159.1044 C.ar    1  UNL1        0.0482
     21 C         141.6014  145.6470  158.8169 C.ar    1  UNL1        0.0061
     22 C         142.0897  145.8124  157.4083 C.ar    1  UNL1        0.0298
     23 C         141.4051  145.0882  156.2873 C.ar    1  UNL1        0.1424
     24 F         141.8934  145.2537  154.8787 F       1  UNL1       -0.2041
     25 C         140.2321  144.1985  156.5748 C.ar    1  UNL1        0.0593
     26 C         139.7439  144.0331  157.9833 C.ar    1  UNL1        0.1439
     27 F         138.5709  143.1433  158.2709 F       1  UNL1       -0.2040
@<TRIPOS>BOND
     1     1     2    1
     2     2     3   ar
     3     3    20    1
     4    20    21   ar
     5    21    22   ar
     6    22    23   ar
     7    23    24    1
     8    23    25   ar
     9    25    26   ar
    10    26    27    1
    11     3     4   ar
    12     4     5   ar
    13     5     6   ar
    14     6     7    1
    15     7     8   ar
    16     8     9   ar
    17     9    10   ar
    18    10    11   ar
    19    11    12   ar
    20    11    13    1
    21    13    14    1
    22    14    17    1
    23    17    18    1
    24    17    19    1
    25    14    15   am
    26    15    16    2
    27     6     2   ar
    28    12     7   ar
    29    26    20   ar
    30    15    10    1
@<TRIPOS>MOLECULE
*****
 27 30 0 0 0
SMALL
GASTEIGER

@<TRIPOS>ATOM
      1 C         141.1284  141.4237  164.8916 C.3     1  UNL1        0.0360
      2 C         142.0320  140.3974  165.5082 C.ar    1  UNL1        0.0361
      3 C         142.2169  140.1539  166.9767 C.ar    1  UNL1        0.1211
      4 N         143.2085  139.0404  167.1408 N.ar    1  UNL1       -0.0772
      5 O         143.6365  138.5958  165.7737 O.2     1  UNL1       -0.3537
      6 C         142.9093  139.4344  164.7647 C.ar    1  UNL1        0.1728
      7 C         143.0371  139.3286  163.2738 C.ar    1  UNL1        0.0367
      8 C         142.7330  138.0312  162.5852 C.ar    1  UNL1        0.0032
      9 C         142.8608  137.9254  161.0944 C.ar    1  UNL1        0.0044
     10 C         143.2928  139.1170  160.2923 C.ar    1  UNL1        0.0512
     11 C         143.5970  140.4144  160.9809 C.ar    1  UNL1        0.0022
     12 C         143.4691  140.5202  162.4717 C.ar    1  UNL1        0.0006
     13 C         143.9983  141.4115  159.9347 C.3     1  UNL1        0.1205
     14 N         143.9422  140.7304  158.5994 N.am    1  UNL1       -0.2736
     15 C         143.5062  139.3123  158.8204 C.2     1  UNL1        0.2490
     16 O         143.3167  138.2721  157.7564 O.2     1  UNL1       -0.2699
     17 C         144.2655  141.3573  157.2755 C.3     1  UNL1        0.0761
     18 C         145.4763  140.9119  156.5104 C.3     1  UNL1        0.0215
     19 C         143.3778  142.4297  156.7169 C.3     1  UNL1        0.0215
     20 C         141.5306  140.8940  168.0864 C.ar    1  UNL1        0.0482
     21 C         140.2478  140.3673  168.6582 C.ar    1  UNL1        0.0061
     22 C         139.5615  141.1074  169.7679 C.ar    1  UNL1        0.0298
     23 C         140.1581  142.3741  170.3057 C.ar    1  UNL1        0.1424
     24 F         139.4719  143.1142  171.4154 F       1  UNL1       -0.2041
     25 C         141.4410  142.9009  169.7340 C.ar    1  UNL1        0.0593
     26 C         142.1272  142.1608  168.6244 C.ar    1  UNL1        0.1439
     27 F         143.4101  142.6875  168.0525 F       1  UNL1       -0.2040
@<TRIPOS>BOND
     1     1     2    1
     2     2     3   ar
     3     3    20    1
     4    20    21   ar
     5    21    22   ar
     6    22    23   ar
     7    23    24    1
     8    23    25   ar
     9    25    26   ar
    10    26    27    1
    11     3     4   ar
    12     4     5   ar
    13     5     6   ar
    14     6     7    1
    15     7     8   ar
    16     8     9   ar
    17     9    10   ar
    18    10    11   ar
    19    11    12   ar
    20    11    13    1
    21    13    14    1
    22    14    17    1
    23    17    18    1
    24    17    19    1
    25    14    15   am
    26    15    16    2
    27     6     2   ar
    28    12     7   ar
    29    26    20   ar
    30    15    10    1
@<TRIPOS>MOLECULE
*****
 27 30 0 0 0
SMALL
GASTEIGER

@<TRIPOS>ATOM
      1 C         144.2993  140.3065  161.2875 C.3     1  UNL1        0.0360
      2 C         143.8249  141.6787  160.9105 C.ar    1  UNL1        0.0361
      3 C         143.7165  142.2221  159.5166 C.ar    1  UNL1        0.1211
      4 N         143.2003  143.6277  159.6058 N.ar    1  UNL1       -0.0772
      5 O         142.9897  143.9529  161.0549 O.2     1  UNL1       -0.3537
      6 C         143.3757  142.7484  161.8612 C.ar    1  UNL1        0.1728
      7 C         143.3220  142.6338  163.3559 C.ar    1  UNL1        0.0367
      8 C         144.2969  143.3975  164.2022 C.ar    1  UNL1        0.0032
      9 C         144.2431  143.2829  165.6968 C.ar    1  UNL1        0.0044
     10 C         143.2144  142.4046  166.3452 C.ar    1  UNL1        0.0512
     11 C         142.2395  141.6408  165.4989 C.ar    1  UNL1        0.0022
     12 C         142.2933  141.7555  164.0042 C.ar    1  UNL1        0.0006
     13 C         141.3439  140.8596  166.4140 C.3     1  UNL1        0.1205
     14 N         141.7653  141.1405  167.8260 N.am    1  UNL1       -0.2736
     15 C         142.9213  142.0953  167.7834 C.2     1  UNL1        0.2490
     16 O         143.6554  142.6445  168.9707 O.2     1  UNL1       -0.2699
     17 C         141.1403  140.5672  169.0632 C.3     1  UNL1        0.0761
     18 C         141.8953  139.5709  169.8923 C.3     1  UNL1        0.0215
     19 C         139.7602  140.9902  169.4714 C.3     1  UNL1        0.0215
     20 C         144.0635  141.4886  158.2549 C.ar    1  UNL1        0.0482
     21 C         143.1601  140.4053  157.7446 C.ar    1  UNL1        0.0061
     22 C         143.5071  139.6719  156.4830 C.ar    1  UNL1        0.0298
     23 C         144.7572  140.0218  155.7317 C.ar    1  UNL1        0.1424
     24 F         145.1041  139.2884  154.4700 F       1  UNL1       -0.2041
     25 C         145.6606  141.1052  156.2420 C.ar    1  UNL1        0.0593
     26 C         145.3137  141.8385  157.5036 C.ar    1  UNL1        0.1439
     27 F         146.2170  142.9219  158.0140 F       1  UNL1       -0.2040
@<TRIPOS>BOND
     1     1     2    1
     2     2     3   ar
     3     3    20    1
     4    20    21   ar
     5    21    22   ar
     6    22    23   ar
     7    23    24    1
     8    23    25   ar
     9    25    26   ar
    10    26    27    1
    11     3     4   ar
    12     4     5   ar
    13     5     6   ar
    14     6     7    1
    15     7     8   ar
    16     8     9   ar
    17     9    10   ar
    18    10    11   ar
    19    11    12   ar
    20    11    13    1
    21    13    14    1
    22    14    17    1
    23    17    18    1
    24    17    19    1
    25    14    15   am
    26    15    16    2
    27     6     2   ar
    28    12     7   ar
    29    26    20   ar
    30    15    10    1
@<TRIPOS>MOLECULE
*****
 27 30 0 0 0
SMALL
GASTEIGER

@<TRIPOS>ATOM
      1 C         141.0025  141.0219  165.4700 C.3     1  UNL1        0.0360
      2 C         139.8921  140.1332  165.9466 C.ar    1  UNL1        0.0361
      3 C         139.5418  139.8503  167.3774 C.ar    1  UNL1        0.1211
      4 N         138.3702  138.9137  167.3914 N.ar    1  UNL1       -0.0772
      5 O         137.9965  138.6177  165.9691 O.2     1  UNL1       -0.3537
      6 C         138.9371  139.3714  165.0763 C.ar    1  UNL1        0.1728
      7 C         138.9248  139.3646  163.5763 C.ar    1  UNL1        0.0367
      8 C         139.3013  138.1198  162.8289 C.ar    1  UNL1        0.0032
      9 C         139.2889  138.1129  161.3290 C.ar    1  UNL1        0.0044
     10 C         138.9001  139.3509  160.5765 C.ar    1  UNL1        0.0512
     11 C         138.5236  140.5957  161.3239 C.ar    1  UNL1        0.0022
     12 C         138.5360  140.6025  162.8238 C.ar    1  UNL1        0.0006
     13 C         138.1870  141.6563  160.3180 C.3     1  UNL1        0.1205
     14 N         138.3555  141.0670  158.9489 N.am    1  UNL1       -0.2736
     15 C         138.7962  139.6422  159.1086 C.2     1  UNL1        0.2490
     16 O         139.0827  138.6779  157.9959 O.2     1  UNL1       -0.2699
     17 C         138.1238  141.7779  157.6485 C.3     1  UNL1        0.0761
     18 C         139.0035  142.9274  157.2550 C.3     1  UNL1        0.0215
     19 C         137.0126  141.3391  156.7415 C.3     1  UNL1        0.0215
     20 C         140.2404  140.4064  168.5828 C.ar    1  UNL1        0.0482
     21 C         139.5236  141.3608  169.4912 C.ar    1  UNL1        0.0061
     22 C         140.2222  141.9169  170.6965 C.ar    1  UNL1        0.0298
     23 C         141.6375  141.5186  170.9933 C.ar    1  UNL1        0.1424
     24 F         142.3361  142.0747  172.1986 F       1  UNL1       -0.2041
     25 C         142.3543  140.5641  170.0848 C.ar    1  UNL1        0.0593
     26 C         141.6557  140.0081  168.8796 C.ar    1  UNL1        0.1439
     27 F         142.3725  139.0536  167.9710 F       1  UNL1       -0.2040
@<TRIPOS>BOND
     1     1     2    1
     2     2     3   ar
     3     3    20    1
     4    20    21   ar
     5    21    22   ar
     6    22    23   ar
     7    23    24    1
     8    23    25   ar
     9    25    26   ar
    10    26    27    1
    11     3     4   ar
    12     4     5   ar
    13     5     6   ar
    14     6     7    1
    15     7     8   ar
    16     8     9   ar
    17     9    10   ar
    18    10    11   ar
    19    11    12   ar
    20    11    13    1
    21    13    14    1
    22    14    17    1
    23    17    18    1
    24    17    19    1
    25    14    15   am
    26    15    16    2
    27     6     2   ar
    28    12     7   ar
    29    26    20   ar
    30    15    10    1
@<TRIPOS>MOLECULE
*****
 27 30 0 0 0
SMALL
GASTEIGER

@<TRIPOS>ATOM
      1 C         141.3094  140.9722  164.9031 C.3     1  UNL1        0.0360
      2 C         142.3973  141.8207  165.4916 C.ar    1  UNL1        0.0361
      3 C         142.6813  142.0014  166.9534 C.ar    1  UNL1        0.1211
      4 N         143.8518  142.9299  167.0869 N.ar    1  UNL1       -0.0772
      5 O         144.2912  143.3231  165.7077 O.2     1  UNL1       -0.3537
      6 C         143.3923  142.6376  164.7217 C.ar    1  UNL1        0.1728
      7 C         143.4740  142.7494  163.2281 C.ar    1  UNL1        0.0367
      8 C         144.6238  142.1287  162.4913 C.ar    1  UNL1        0.0032
      9 C         144.7055  142.2405  160.9978 C.ar    1  UNL1        0.0044
     10 C         143.6374  142.9730  160.2410 C.ar    1  UNL1        0.0512
     11 C         142.4877  143.5936  160.9777 C.ar    1  UNL1        0.0022
     12 C         142.4060  143.4818  162.4713 C.ar    1  UNL1        0.0006
     13 C         141.5908  144.2490  159.9697 C.3     1  UNL1        0.1205
     14 N         142.1863  144.0333  158.6099 N.am    1  UNL1       -0.2736
     15 C         143.4512  143.2447  158.7775 C.2     1  UNL1        0.2490
     16 O         144.3687  142.8050  157.6753 O.2     1  UNL1       -0.2699
     17 C         141.6168  144.5208  157.3106 C.3     1  UNL1        0.0761
     18 C         140.6951  143.6413  156.5187 C.3     1  UNL1        0.0215
     19 C         141.9690  145.8877  156.8032 C.3     1  UNL1        0.0215
     20 C         141.9272  141.3652  168.0833 C.ar    1  UNL1        0.0482
     21 C         142.4371  140.0999  168.7069 C.ar    1  UNL1        0.0061
     22 C         141.6830  139.4637  169.8368 C.ar    1  UNL1        0.0298
     23 C         140.4190  140.0929  170.3429 C.ar    1  UNL1        0.1424
     24 F         139.6649  139.4567  171.4728 F       1  UNL1       -0.2041
     25 C         139.9090  141.3582  169.7193 C.ar    1  UNL1        0.0593
     26 C         140.6631  141.9943  168.5895 C.ar    1  UNL1        0.1439
     27 F         140.1531  143.2597  167.9658 F       1  UNL1       -0.2040
@<TRIPOS>BOND
     1     1     2    1
     2     2     3   ar
     3     3    20    1
     4    20    21   ar
     5    21    22   ar
     6    22    23   ar
     7    23    24    1
     8    23    25   ar
     9    25    26   ar
    10    26    27    1
    11     3     4   ar
    12     4     5   ar
    13     5     6   ar
    14     6     7    1
    15     7     8   ar
    16     8     9   ar
    17     9    10   ar
    18    10    11   ar
    19    11    12   ar
    20    11    13    1
    21    13    14    1
    22    14    17    1
    23    17    18    1
    24    17    19    1
    25    14    15   am
    26    15    16    2
    27     6     2   ar
    28    12     7   ar
    29    26    20   ar
    30    15    10    1
@<TRIPOS>MOLECULE
*****
 27 30 0 0 0
SMALL
GASTEIGER

@<TRIPOS>ATOM
      1 C         141.8686  141.1132  164.8367 C.3     1  UNL1        0.0360
      2 C         140.9776  142.1440  165.4640 C.ar    1  UNL1        0.0361
      3 C         140.8238  142.3993  166.9341 C.ar    1  UNL1        0.1211
      4 N         139.8351  143.5136  167.1102 N.ar    1  UNL1       -0.0772
      5 O         139.3779  143.9469  165.7489 O.2     1  UNL1       -0.3537
      6 C         140.0840  143.1005  164.7315 C.ar    1  UNL1        0.1728
      7 C         139.9244  143.1942  163.2429 C.ar    1  UNL1        0.0367
      8 C         139.0941  142.1809  162.5124 C.ar    1  UNL1        0.0032
      9 C         138.9346  142.2746  161.0239 C.ar    1  UNL1        0.0044
     10 C         139.6054  143.3816  160.2659 C.ar    1  UNL1        0.0512
     11 C         140.4358  144.3948  160.9964 C.ar    1  UNL1        0.0022
     12 C         140.5953  144.3011  162.4849 C.ar    1  UNL1        0.0006
     13 C         140.9731  145.3672  159.9886 C.3     1  UNL1        0.1205
     14 N         140.4749  144.9549  158.6352 N.am    1  UNL1       -0.2736
     15 C         139.6296  143.7277  158.8065 C.2     1  UNL1        0.2490
     16 O         138.9311  142.9782  157.7109 O.2     1  UNL1       -0.2699
     17 C         140.7701  145.6482  157.3381 C.3     1  UNL1        0.0761
     18 C         142.1828  145.7425  156.8427 C.3     1  UNL1        0.0215
     19 C         139.6526  146.2471  156.5365 C.3     1  UNL1        0.0215
     20 C         141.5340  141.6686  168.0349 C.ar    1  UNL1        0.0482
     21 C         142.7212  142.2934  168.7057 C.ar    1  UNL1        0.0061
     22 C         143.4314  141.5627  169.8065 C.ar    1  UNL1        0.0298
     23 C         142.9543  140.2072  170.2365 C.ar    1  UNL1        0.1424
     24 F         143.6645  139.4765  171.3373 F       1  UNL1       -0.2041
     25 C         141.7670  139.5823  169.5657 C.ar    1  UNL1        0.0593
     26 C         141.0569  140.3130  168.4650 C.ar    1  UNL1        0.1439
     27 F         139.8695  139.6882  167.7941 F       1  UNL1       -0.2040
@<TRIPOS>BOND
     1     1     2    1
     2     2     3   ar
     3     3    20    1
     4    20    21   ar
     5    21    22   ar
     6    22    23   ar
     7    23    24    1
     8    23    25   ar
     9    25    26   ar
    10    26    27    1
    11     3     4   ar
    12     4     5   ar
    13     5     6   ar
    14     6     7    1
    15     7     8   ar
    16     8     9   ar
    17     9    10   ar
    18    10    11   ar
    19    11    12   ar
    20    11    13    1
    21    13    14    1
    22    14    17    1
    23    17    18    1
    24    17    19    1
    25    14    15   am
    26    15    16    2
    27     6     2   ar
    28    12     7   ar
    29    26    20   ar
    30    15    10    1
@<TRIPOS>MOLECULE
*****
 27 30 0 0 0
SMALL
GASTEIGER

@<TRIPOS>ATOM
      1 C         139.7289  142.4455  165.1158 C.3     1  UNL1        0.0360
      2 C         141.1933  142.7004  165.3173 C.ar    1  UNL1        0.0361
      3 C         141.9914  142.3406  166.5354 C.ar    1  UNL1        0.1211
      4 N         143.4081  142.7777  166.3071 N.ar    1  UNL1       -0.0772
      5 O         143.4855  143.4075  164.9479 O.2     1  UNL1       -0.3537
      6 C         142.1167  143.3597  164.3362 C.ar    1  UNL1        0.1728
      7 C         141.7378  143.8800  162.9813 C.ar    1  UNL1        0.0367
      8 C         140.8790  145.1039  162.8611 C.ar    1  UNL1        0.0032
      9 C         140.5002  145.6241  161.5062 C.ar    1  UNL1        0.0044
     10 C         140.9802  144.9204  160.2715 C.ar    1  UNL1        0.0512
     11 C         141.8390  143.6966  160.3917 C.ar    1  UNL1        0.0022
     12 C         142.2178  143.1763  161.7466 C.ar    1  UNL1        0.0006
     13 C         142.1599  143.2177  159.0069 C.3     1  UNL1        0.1205
     14 N         141.4994  144.1456  158.0308 N.am    1  UNL1       -0.2736
     15 C         140.7703  145.1980  158.8123 C.2     1  UNL1        0.2490
     16 O         139.9715  146.3293  158.2360 O.2     1  UNL1       -0.2699
     17 C         141.5578  144.0397  156.5356 C.3     1  UNL1        0.0761
     18 C         142.3021  145.0700  155.7393 C.3     1  UNL1        0.0215
     19 C         140.8718  142.9033  155.8369 C.3     1  UNL1        0.0215
     20 C         141.4652  141.6628  167.7657 C.ar    1  UNL1        0.0482
     21 C         141.9156  140.2734  168.1073 C.ar    1  UNL1        0.0061
     22 C         141.3894  139.5956  169.3377 C.ar    1  UNL1        0.0298
     23 C         140.4130  140.3073  170.2264 C.ar    1  UNL1        0.1424
     24 F         139.8868  139.6295  171.4568 F       1  UNL1       -0.2041
     25 C         139.9625  141.6968  169.8848 C.ar    1  UNL1        0.0593
     26 C         140.4887  142.3744  168.6546 C.ar    1  UNL1        0.1439
     27 F         140.0383  143.7640  168.3129 F       1  UNL1       -0.2040
@<TRIPOS>BOND
     1     1     2    1
     2     2     3   ar
     3     3    20    1
     4    20    21   ar
     5    21    22   ar
     6    22    23   ar
     7    23    24    1
     8    23    25   ar
     9    25    26   ar
    10    26    27    1
    11     3     4   ar
    12     4     5   ar
    13     5     6   ar
    14     6     7    1
    15     7     8   ar
    16     8     9   ar
    17     9    10   ar
    18    10    11   ar
    19    11    12   ar
    20    11    13    1
    21    13    14    1
    22    14    17    1
    23    17    18    1
    24    17    19    1
    25    14    15   am
    26    15    16    2
    27     6     2   ar
    28    12     7   ar
    29    26    20   ar
    30    15    10    1
