@<TRIPOS>MOLECULE
*****
 35 38 0 0 0
SMALL
GASTEIGER

@<TRIPOS>ATOM
      1 C         142.2909  138.3134  159.9807 C.ar    1  UNL1        0.1219
      2 C         143.2256  137.9711  161.1028 C.ar    1  UNL1        0.0240
      3 C         142.7675  138.0977  162.5255 C.ar    1  UNL1        0.0235
      4 C         141.3747  138.5666  162.8261 C.ar    1  UNL1        0.1166
      5 N         140.4400  138.9088  161.7040 N.ar    1  UNL1       -0.2887
      6 C         140.8981  138.7822  160.2813 C.ar    1  UNL1        0.2772
      7 O         139.9634  139.1245  159.1591 O.2     1  UNL1       -0.2654
      8 C         139.0473  139.3777  162.0046 C.3     1  UNL1        0.1307
      9 C         138.5892  139.5043  163.4273 C.3     1  UNL1        0.1183
     10 N         139.5239  139.1621  164.5495 N.am    1  UNL1       -0.2709
     11 C         140.9167  138.6932  164.2489 C.2     1  UNL1        0.2651
     12 O         141.8514  138.3509  165.3710 O.2     1  UNL1       -0.2683
     13 C         143.4422  136.3032  155.2357 C.3     1  UNL1        0.0538
     14 C         143.2781  137.2628  156.3769 C.ar    1  UNL1        0.0786
     15 C         142.7340  136.9326  157.7352 C.ar    1  UNL1        0.0963
     16 N         142.7489  138.1868  158.5579 N.ar    1  UNL1       -0.2825
     17 C         143.3023  139.2920  157.7082 C.ar    1  UNL1        0.1826
     18 N         143.6294  138.7210  156.3602 N.ar    1  UNL1       -0.2280
     19 C         139.0658  139.2887  165.9722 C.3     1  UNL1        0.1194
     20 C         138.0161  138.3605  166.5075 C.3     1  UNL1        0.0255
     21 C         139.6575  140.3435  166.8596 C.3     1  UNL1        0.2249
     22 O         139.5622  141.7894  166.4722 O.3     1  UNL1       -0.4740
     23 C         140.7082  142.4545  165.7690 C.ar    1  UNL1        0.1350
     24 C         142.1003  141.9205  165.9328 C.ar    1  UNL1        0.0389
     25 C         143.2463  142.5857  165.2296 C.ar    1  UNL1        0.0327
     26 C         143.0000  143.7847  164.3626 C.ar    1  UNL1        0.1400
     27 F         144.1459  144.4498  163.6595 F       1  UNL1       -0.2042
     28 C         141.6079  144.3186  164.1988 C.ar    1  UNL1        0.0286
     29 C         140.4619  143.6536  164.9020 C.ar    1  UNL1        0.0219
     30 C         139.0698  144.1875  164.7382 C.3     1  UNL1        0.1204
     31 C         138.4718  145.0612  165.8007 C.3     1  UNL1        0.0136
     32 C         138.2757  143.8477  163.5118 C.3     1  UNL1        0.4012
     33 F         137.4816  143.5079  162.2855 F       1  UNL1       -0.1697
     34 F         137.7335  142.6303  164.2002 F       1  UNL1       -0.1697
     35 F         138.8178  145.0651  162.8234 F       1  UNL1       -0.1697
@<TRIPOS>BOND
     1    13    14    1
     2    14    15   ar
     3    15    16   ar
     4    16     1    1
     5     1     2   ar
     6     2     3   ar
     7     3     4   ar
     8     4     5   ar
     9     5     6   ar
    10     6     7    2
    11     5     8    1
    12     8     9    1
    13     9    10    1
    14    10    19    1
    15    19    20    1
    16    19    21    1
    17    21    22    1
    18    22    23    1
    19    23    24   ar
    20    24    25   ar
    21    25    26   ar
    22    26    27    1
    23    26    28   ar
    24    28    29   ar
    25    29    30    1
    26    30    31    1
    27    30    32    1
    28    32    33    1
    29    32    34    1
    30    32    35    1
    31    10    11   am
    32    11    12    2
    33    16    17   ar
    34    17    18   ar
    35    18    14   ar
    36     6     1   ar
    37    29    23   ar
    38    11     4    1
@<TRIPOS>MOLECULE
*****
 35 38 0 0 0
SMALL
GASTEIGER

@<TRIPOS>ATOM
      1 C         141.6305  138.3931  159.5412 C.ar    1  UNL1        0.1219
      2 C         140.2570  138.9928  159.4799 C.ar    1  UNL1        0.0240
      3 C         139.4868  139.2340  160.7442 C.ar    1  UNL1        0.0235
      4 C         140.0902  138.8755  162.0699 C.ar    1  UNL1        0.1166
      5 N         141.4637  138.2758  162.1313 N.ar    1  UNL1       -0.2887
      6 C         142.2338  138.0346  160.8669 C.ar    1  UNL1        0.2772
      7 O         143.6074  137.4349  160.9282 O.2     1  UNL1       -0.2654
      8 C         142.0670  137.9173  163.4569 C.3     1  UNL1        0.1307
      9 C         141.2969  138.1585  164.7213 C.3     1  UNL1        0.1183
     10 N         139.9233  138.7583  164.6600 N.am    1  UNL1       -0.2709
     11 C         139.3200  139.1168  163.3343 C.2     1  UNL1        0.2651
     12 O         137.9465  139.7165  163.2730 O.2     1  UNL1       -0.2683
     13 C         143.8136  136.0035  155.3693 C.3     1  UNL1        0.0538
     14 C         143.4042  137.0534  156.3592 C.ar    1  UNL1        0.0786
     15 C         142.5594  136.8335  157.5790 C.ar    1  UNL1        0.0963
     16 N         142.4007  138.1519  158.2768 N.ar    1  UNL1       -0.2825
     17 C         143.1475  139.1865  157.4883 C.ar    1  UNL1        0.1826
     18 N         143.7676  138.5077  156.3031 N.ar    1  UNL1       -0.2280
     19 C         139.1532  138.9995  165.9244 C.3     1  UNL1        0.1194
     20 C         138.0847  138.0354  166.3473 C.3     1  UNL1        0.0255
     21 C         139.4515  140.2049  166.7659 C.3     1  UNL1        0.2249
     22 O         139.3288  141.5792  166.1777 O.3     1  UNL1       -0.4740
     23 C         140.5432  142.2754  165.6387 C.ar    1  UNL1        0.1350
     24 C         141.9033  141.6768  165.8426 C.ar    1  UNL1        0.0389
     25 C         143.1177  142.3731  165.3035 C.ar    1  UNL1        0.0327
     26 C         142.9719  143.6679  164.5604 C.ar    1  UNL1        0.1400
     27 F         144.1862  144.3641  164.0214 F       1  UNL1       -0.2042
     28 C         141.6117  144.2665  164.3565 C.ar    1  UNL1        0.0286
     29 C         140.3974  143.5703  164.8956 C.ar    1  UNL1        0.0219
     30 C         139.0372  144.1689  164.6916 C.3     1  UNL1        0.1204
     31 C         138.4515  145.0730  165.7354 C.3     1  UNL1        0.0136
     32 C         138.2628  143.8635  163.4438 C.3     1  UNL1        0.4012
     33 F         137.4884  143.5581  162.1960 F       1  UNL1       -0.1697
     34 F         139.0177  144.9342  162.7132 F       1  UNL1       -0.1697
     35 F         137.5079  142.7928  164.1743 F       1  UNL1       -0.1697
@<TRIPOS>BOND
     1    13    14    1
     2    14    15   ar
     3    15    16   ar
     4    16     1    1
     5     1     2   ar
     6     2     3   ar
     7     3     4   ar
     8     4     5   ar
     9     5     6   ar
    10     6     7    2
    11     5     8    1
    12     8     9    1
    13     9    10    1
    14    10    19    1
    15    19    20    1
    16    19    21    1
    17    21    22    1
    18    22    23    1
    19    23    24   ar
    20    24    25   ar
    21    25    26   ar
    22    26    27    1
    23    26    28   ar
    24    28    29   ar
    25    29    30    1
    26    30    31    1
    27    30    32    1
    28    32    33    1
    29    32    34    1
    30    32    35    1
    31    10    11   am
    32    11    12    2
    33    16    17   ar
    34    17    18   ar
    35    18    14   ar
    36     6     1   ar
    37    29    23   ar
    38    11     4    1
@<TRIPOS>MOLECULE
*****
 35 38 0 0 0
SMALL
GASTEIGER

@<TRIPOS>ATOM
      1 C         141.7296  138.5876  159.4881 C.ar    1  UNL1        0.1219
      2 C         140.4593  139.3829  159.4283 C.ar    1  UNL1        0.0240
      3 C         139.7216  139.7140  160.6917 C.ar    1  UNL1        0.0235
      4 C         140.2544  139.2499  162.0148 C.ar    1  UNL1        0.1166
      5 N         141.5248  138.4547  162.0746 N.ar    1  UNL1       -0.2887
      6 C         142.2624  138.1235  160.8112 C.ar    1  UNL1        0.2772
      7 O         143.5328  137.3281  160.8710 O.2     1  UNL1       -0.2654
      8 C         142.0575  137.9906  163.3978 C.3     1  UNL1        0.1307
      9 C         141.3199  138.3217  164.6612 C.3     1  UNL1        0.1183
     10 N         140.0495  139.1171  164.6014 N.am    1  UNL1       -0.2709
     11 C         139.5167  139.5812  163.2783 C.2     1  UNL1        0.2651
     12 O         138.2463  140.3765  163.2185 O.2     1  UNL1       -0.2683
     13 C         143.7175  135.9247  155.3846 C.3     1  UNL1        0.0538
     14 C         143.3810  137.0323  156.3385 C.ar    1  UNL1        0.0786
     15 C         142.5426  136.9060  157.5759 C.ar    1  UNL1        0.0963
     16 N         142.4673  138.2563  158.2246 N.ar    1  UNL1       -0.2825
     17 C         143.2591  139.2172  157.3882 C.ar    1  UNL1        0.1826
     18 N         143.8239  138.4608  156.2225 N.ar    1  UNL1       -0.2280
     19 C         139.3118  139.4483  165.8648 C.3     1  UNL1        0.1194
     20 C         138.1614  138.5937  166.3076 C.3     1  UNL1        0.0255
     21 C         139.7247  140.6341  166.6855 C.3     1  UNL1        0.2249
     22 O         140.8437  141.5168  166.2179 O.3     1  UNL1       -0.4740
     23 C         140.5568  142.6702  165.3028 C.ar    1  UNL1        0.1350
     24 C         139.1733  143.2457  165.2325 C.ar    1  UNL1        0.0389
     25 C         138.8865  144.3991  164.3174 C.ar    1  UNL1        0.0327
     26 C         139.9830  144.9769  163.4726 C.ar    1  UNL1        0.1400
     27 F         139.6961  146.1303  162.5575 F       1  UNL1       -0.2042
     28 C         141.3664  144.4015  163.5429 C.ar    1  UNL1        0.0286
     29 C         141.6533  143.2481  164.4580 C.ar    1  UNL1        0.0219
     30 C         143.0367  142.6726  164.5283 C.3     1  UNL1        0.1204
     31 C         143.3454  141.3757  163.8409 C.3     1  UNL1        0.0136
     32 C         144.1116  143.3942  165.2861 C.3     1  UNL1        0.4012
     33 F         145.1863  144.1157  166.0439 F       1  UNL1       -0.1697
     34 F         143.6964  142.6910  166.5444 F       1  UNL1       -0.1697
     35 F         144.5267  144.0973  164.0279 F       1  UNL1       -0.1697
@<TRIPOS>BOND
     1    13    14    1
     2    14    15   ar
     3    15    16   ar
     4    16     1    1
     5     1     2   ar
     6     2     3   ar
     7     3     4   ar
     8     4     5   ar
     9     5     6   ar
    10     6     7    2
    11     5     8    1
    12     8     9    1
    13     9    10    1
    14    10    19    1
    15    19    20    1
    16    19    21    1
    17    21    22    1
    18    22    23    1
    19    23    24   ar
    20    24    25   ar
    21    25    26   ar
    22    26    27    1
    23    26    28   ar
    24    28    29   ar
    25    29    30    1
    26    30    31    1
    27    30    32    1
    28    32    33    1
    29    32    34    1
    30    32    35    1
    31    10    11   am
    32    11    12    2
    33    16    17   ar
    34    17    18   ar
    35    18    14   ar
    36     6     1   ar
    37    29    23   ar
    38    11     4    1
@<TRIPOS>MOLECULE
*****
 35 38 0 0 0
SMALL
GASTEIGER

@<TRIPOS>ATOM
      1 C         141.2809  144.5221  158.7754 C.ar    1  UNL1        0.1219
      2 C         142.4282  143.5566  158.7371 C.ar    1  UNL1        0.0240
      3 C         143.0679  143.1009  160.0150 C.ar    1  UNL1        0.0235
      4 C         142.5603  143.6107  161.3312 C.ar    1  UNL1        0.1166
      5 N         141.4131  144.5762  161.3695 N.ar    1  UNL1       -0.2887
      6 C         140.7733  145.0319  160.0917 C.ar    1  UNL1        0.2772
      7 O         139.6260  145.9975  160.1299 O.2     1  UNL1       -0.2654
      8 C         140.9055  145.0861  162.6858 C.3     1  UNL1        0.1307
      9 C         141.5452  144.6304  163.9637 C.3     1  UNL1        0.1183
     10 N         142.6926  143.6648  163.9254 N.am    1  UNL1       -0.2709
     11 C         143.2001  143.1550  162.6092 C.2     1  UNL1        0.2651
     12 O         144.3474  142.1895  162.5708 O.2     1  UNL1       -0.2683
     13 C         140.0573  147.3966  154.5185 C.3     1  UNL1        0.0538
     14 C         140.0787  146.2991  155.5408 C.ar    1  UNL1        0.0786
     15 C         140.9480  146.2488  156.7622 C.ar    1  UNL1        0.0963
     16 N         140.6411  144.9778  157.4975 N.ar    1  UNL1       -0.2825
     17 C         139.5822  144.2427  156.7305 C.ar    1  UNL1        0.1826
     18 N         139.2346  145.0593  155.5212 N.ar    1  UNL1       -0.2280
     19 C         143.3323  143.2091  165.2033 C.3     1  UNL1        0.1194
     20 C         144.7060  143.6893  165.5672 C.3     1  UNL1        0.0255
     21 C         142.5983  142.2733  166.1174 C.3     1  UNL1        0.2249
     22 O         141.1721  142.5524  166.4888 O.3     1  UNL1       -0.4740
     23 C         140.1947  141.4216  166.6142 C.ar    1  UNL1        0.1350
     24 C         139.4567  140.9304  165.4042 C.ar    1  UNL1        0.0389
     25 C         138.4792  139.7995  165.5296 C.ar    1  UNL1        0.0327
     26 C         138.2397  139.1599  166.8651 C.ar    1  UNL1        0.1400
     27 F         137.2623  138.0290  166.9905 F       1  UNL1       -0.2042
     28 C         138.9777  139.6511  168.0751 C.ar    1  UNL1        0.0286
     29 C         139.9551  140.7819  167.9497 C.ar    1  UNL1        0.0219
     30 C         140.6930  141.2732  169.1597 C.3     1  UNL1        0.1204
     31 C         141.8694  140.5043  169.6842 C.3     1  UNL1        0.0136
     32 C         140.2545  142.5332  169.8453 C.3     1  UNL1        0.4012
     33 F         139.8160  143.7932  170.5309 F       1  UNL1       -0.1697
     34 F         139.0031  141.8468  170.3065 F       1  UNL1       -0.1697
     35 F         141.5060  143.2197  169.3842 F       1  UNL1       -0.1697
@<TRIPOS>BOND
     1    13    14    1
     2    14    15   ar
     3    15    16   ar
     4    16     1    1
     5     1     2   ar
     6     2     3   ar
     7     3     4   ar
     8     4     5   ar
     9     5     6   ar
    10     6     7    2
    11     5     8    1
    12     8     9    1
    13     9    10    1
    14    10    19    1
    15    19    20    1
    16    19    21    1
    17    21    22    1
    18    22    23    1
    19    23    24   ar
    20    24    25   ar
    21    25    26   ar
    22    26    27    1
    23    26    28   ar
    24    28    29   ar
    25    29    30    1
    26    30    31    1
    27    30    32    1
    28    32    33    1
    29    32    34    1
    30    32    35    1
    31    10    11   am
    32    11    12    2
    33    16    17   ar
    34    17    18   ar
    35    18    14   ar
    36     6     1   ar
    37    29    23   ar
    38    11     4    1
@<TRIPOS>MOLECULE
*****
 35 38 0 0 0
SMALL
GASTEIGER

@<TRIPOS>ATOM
      1 C         141.5980  138.9243  159.9925 C.ar    1  UNL1        0.1219
      2 C         140.2934  139.6645  159.9960 C.ar    1  UNL1        0.0240
      3 C         139.5551  139.8769  161.2843 C.ar    1  UNL1        0.0235
      4 C         140.1214  139.3491  162.5691 C.ar    1  UNL1        0.1166
      5 N         141.4260  138.6089  162.5656 N.ar    1  UNL1       -0.2887
      6 C         142.1643  138.3965  161.2774 C.ar    1  UNL1        0.2772
      7 O         143.4690  137.6563  161.2739 O.2     1  UNL1       -0.2654
      8 C         141.9922  138.0812  163.8505 C.3     1  UNL1        0.1307
      9 C         141.2539  138.2936  165.1387 C.3     1  UNL1        0.1183
     10 N         139.9492  139.0338  165.1422 N.am    1  UNL1       -0.2709
     11 C         139.3830  139.5616  163.8574 C.2     1  UNL1        0.2651
     12 O         138.0783  140.3018  163.8609 O.2     1  UNL1       -0.2683
     13 C         143.4022  136.7305  155.5413 C.3     1  UNL1        0.0538
     14 C         143.1657  137.7034  156.6582 C.ar    1  UNL1        0.0786
     15 C         142.2738  137.4844  157.8442 C.ar    1  UNL1        0.0963
     16 N         142.3364  138.7118  158.7042 N.ar    1  UNL1       -0.2825
     17 C         143.2670  139.6894  158.0498 C.ar    1  UNL1        0.1826
     18 N         143.7795  139.0662  156.7853 N.ar    1  UNL1       -0.2280
     19 C         139.2109  139.2462  166.4305 C.3     1  UNL1        0.1194
     20 C         137.8527  138.6402  166.6253 C.3     1  UNL1        0.0255
     21 C         139.8308  140.0647  167.5241 C.3     1  UNL1        0.2249
     22 O         139.9942  141.5458  167.3518 O.3     1  UNL1       -0.4740
     23 C         141.1373  142.0852  166.5442 C.ar    1  UNL1        0.1350
     24 C         140.9073  142.5519  165.1374 C.ar    1  UNL1        0.0389
     25 C         142.0505  143.0914  164.3298 C.ar    1  UNL1        0.0327
     26 C         143.4236  143.1642  164.9291 C.ar    1  UNL1        0.1400
     27 F         144.5667  143.7037  164.1215 F       1  UNL1       -0.2042
     28 C         143.6536  142.6975  166.3360 C.ar    1  UNL1        0.0286
     29 C         142.5105  142.1581  167.1435 C.ar    1  UNL1        0.0219
     30 C         142.7405  141.6914  168.5504 C.3     1  UNL1        0.1204
     31 C         142.7902  140.2235  168.8550 C.3     1  UNL1        0.0136
     32 C         142.9209  142.6927  169.6527 C.3     1  UNL1        0.4012
     33 F         143.1013  143.6939  170.7550 F       1  UNL1       -0.1697
     34 F         144.3340  142.2274  169.8440 F       1  UNL1       -0.1697
     35 F         141.5078  143.1579  169.4614 F       1  UNL1       -0.1697
@<TRIPOS>BOND
     1    13    14    1
     2    14    15   ar
     3    15    16   ar
     4    16     1    1
     5     1     2   ar
     6     2     3   ar
     7     3     4   ar
     8     4     5   ar
     9     5     6   ar
    10     6     7    2
    11     5     8    1
    12     8     9    1
    13     9    10    1
    14    10    19    1
    15    19    20    1
    16    19    21    1
    17    21    22    1
    18    22    23    1
    19    23    24   ar
    20    24    25   ar
    21    25    26   ar
    22    26    27    1
    23    26    28   ar
    24    28    29   ar
    25    29    30    1
    26    30    31    1
    27    30    32    1
    28    32    33    1
    29    32    34    1
    30    32    35    1
    31    10    11   am
    32    11    12    2
    33    16    17   ar
    34    17    18   ar
    35    18    14   ar
    36     6     1   ar
    37    29    23   ar
    38    11     4    1
@<TRIPOS>MOLECULE
*****
 35 38 0 0 0
SMALL
GASTEIGER

@<TRIPOS>ATOM
      1 C         143.6565  140.7941  159.4947 C.ar    1  UNL1        0.1219
      2 C         142.8370  139.5461  159.6397 C.ar    1  UNL1        0.0240
      3 C         142.5861  138.9675  161.0006 C.ar    1  UNL1        0.0235
      4 C         143.1547  139.6369  162.2166 C.ar    1  UNL1        0.1166
      5 N         143.9742  140.8848  162.0717 N.ar    1  UNL1       -0.2887
      6 C         144.2251  141.4634  160.7108 C.ar    1  UNL1        0.2772
      7 O         145.0446  142.7114  160.5658 O.2     1  UNL1       -0.2654
      8 C         144.5427  141.5541  163.2877 C.3     1  UNL1        0.1307
      9 C         144.2918  140.9755  164.6487 C.3     1  UNL1        0.1183
     10 N         143.4723  139.7275  164.7937 N.am    1  UNL1       -0.2709
     11 C         142.9037  139.0582  163.5776 C.2     1  UNL1        0.2651
     12 O         142.0842  137.8103  163.7225 O.2     1  UNL1       -0.2683
     13 C         145.5720  141.5430  154.6315 C.3     1  UNL1        0.0538
     14 C         144.7880  141.7169  155.8984 C.ar    1  UNL1        0.0786
     15 C         144.8547  140.8291  157.1055 C.ar    1  UNL1        0.0963
     16 N         143.9075  141.3727  158.1337 N.ar    1  UNL1       -0.2825
     17 C         143.2553  142.5966  157.5621 C.ar    1  UNL1        0.1826
     18 N         143.7994  142.8093  156.1805 N.ar    1  UNL1       -0.2280
     19 C         143.2214  139.1489  166.1546 C.3     1  UNL1        0.1194
     20 C         143.9341  137.9001  166.5817 C.3     1  UNL1        0.0255
     21 C         142.2576  139.8191  167.0885 C.3     1  UNL1        0.2249
     22 O         140.7813  139.7158  166.8439 O.3     1  UNL1       -0.4740
     23 C         140.0537  140.8369  166.1630 C.ar    1  UNL1        0.1350
     24 C         140.3990  142.2605  166.4858 C.ar    1  UNL1        0.0389
     25 C         139.6713  143.3817  165.8049 C.ar    1  UNL1        0.0327
     26 C         138.5984  143.0792  164.8013 C.ar    1  UNL1        0.1400
     27 F         137.8707  144.2003  164.1205 F       1  UNL1       -0.2042
     28 C         138.2531  141.6556  164.4785 C.ar    1  UNL1        0.0286
     29 C         138.9807  140.5345  165.1594 C.ar    1  UNL1        0.0219
     30 C         138.6354  139.1109  164.8366 C.3     1  UNL1        0.1204
     31 C         138.7352  138.6168  163.4239 C.3     1  UNL1        0.0136
     32 C         138.1903  138.1815  165.9266 C.3     1  UNL1        0.4012
     33 F         137.7452  137.2520  167.0165 F       1  UNL1       -0.1697
     34 F         139.0193  137.0836  165.3289 F       1  UNL1       -0.1697
     35 F         137.3613  139.2794  166.5243 F       1  UNL1       -0.1697
@<TRIPOS>BOND
     1    13    14    1
     2    14    15   ar
     3    15    16   ar
     4    16     1    1
     5     1     2   ar
     6     2     3   ar
     7     3     4   ar
     8     4     5   ar
     9     5     6   ar
    10     6     7    2
    11     5     8    1
    12     8     9    1
    13     9    10    1
    14    10    19    1
    15    19    20    1
    16    19    21    1
    17    21    22    1
    18    22    23    1
    19    23    24   ar
    20    24    25   ar
    21    25    26   ar
    22    26    27    1
    23    26    28   ar
    24    28    29   ar
    25    29    30    1
    26    30    31    1
    27    30    32    1
    28    32    33    1
    29    32    34    1
    30    32    35    1
    31    10    11   am
    32    11    12    2
    33    16    17   ar
    34    17    18   ar
    35    18    14   ar
    36     6     1   ar
    37    29    23   ar
    38    11     4    1
@<TRIPOS>MOLECULE
*****
 35 38 0 0 0
SMALL
GASTEIGER

@<TRIPOS>ATOM
      1 C         141.6662  144.1755  158.4707 C.ar    1  UNL1        0.1219
      2 C         142.9953  143.4828  158.4109 C.ar    1  UNL1        0.0240
      3 C         143.6046  142.9199  159.6606 C.ar    1  UNL1        0.0235
      4 C         142.8848  143.0498  160.9702 C.ar    1  UNL1        0.1166
      5 N         141.5557  143.7424  161.0301 N.ar    1  UNL1       -0.2887
      6 C         140.9464  144.3053  159.7804 C.ar    1  UNL1        0.2772
      7 O         139.6172  144.9980  159.8402 O.2     1  UNL1       -0.2654
      8 C         140.8359  143.8723  162.3397 C.3     1  UNL1        0.1307
      9 C         141.4453  143.3094  163.5894 C.3     1  UNL1        0.1183
     10 N         142.7745  142.6167  163.5296 N.am    1  UNL1       -0.2709
     11 C         143.4942  142.4868  162.2200 C.2     1  UNL1        0.2651
     12 O         144.8233  141.7942  162.1601 O.2     1  UNL1       -0.2683
     13 C         139.8171  147.5704  154.8740 C.3     1  UNL1        0.0538
     14 C         140.2068  146.2989  155.5678 C.ar    1  UNL1        0.0786
     15 C         140.8407  146.1926  156.9231 C.ar    1  UNL1        0.0963
     16 N         141.0568  144.7384  157.2210 N.ar    1  UNL1       -0.2825
     17 C         140.5565  143.9460  156.0497 C.ar    1  UNL1        0.1826
     18 N         140.0312  144.9104  155.0280 N.ar    1  UNL1       -0.2280
     19 C         143.3838  142.0538  164.7793 C.3     1  UNL1        0.1194
     20 C         144.1372  142.9508  165.7162 C.3     1  UNL1        0.0255
     21 C         143.2397  140.5938  165.0922 C.3     1  UNL1        0.2249
     22 O         141.9159  140.0501  165.5412 O.3     1  UNL1       -0.4740
     23 C         141.5205  140.1368  166.9855 C.ar    1  UNL1        0.1350
     24 C         142.5587  140.4139  168.0321 C.ar    1  UNL1        0.0389
     25 C         142.1632  140.5006  169.4764 C.ar    1  UNL1        0.0327
     26 C         140.7296  140.3101  169.8742 C.ar    1  UNL1        0.1400
     27 F         140.3342  140.3968  171.3185 F       1  UNL1       -0.2042
     28 C         139.6913  140.0330  168.8277 C.ar    1  UNL1        0.0286
     29 C         140.0867  139.9463  167.3834 C.ar    1  UNL1        0.0219
     30 C         139.0485  139.6692  166.3369 C.3     1  UNL1        0.1204
     31 C         138.6066  140.7631  165.4106 C.3     1  UNL1        0.0136
     32 C         138.4521  138.2980  166.2166 C.3     1  UNL1        0.4012
     33 F         137.8557  136.9270  166.0964 F       1  UNL1       -0.1697
     34 F         137.2565  138.7492  167.0021 F       1  UNL1       -0.1697
     35 F         139.6477  137.8468  165.4312 F       1  UNL1       -0.1697
@<TRIPOS>BOND
     1    13    14    1
     2    14    15   ar
     3    15    16   ar
     4    16     1    1
     5     1     2   ar
     6     2     3   ar
     7     3     4   ar
     8     4     5   ar
     9     5     6   ar
    10     6     7    2
    11     5     8    1
    12     8     9    1
    13     9    10    1
    14    10    19    1
    15    19    20    1
    16    19    21    1
    17    21    22    1
    18    22    23    1
    19    23    24   ar
    20    24    25   ar
    21    25    26   ar
    22    26    27    1
    23    26    28   ar
    24    28    29   ar
    25    29    30    1
    26    30    31    1
    27    30    32    1
    28    32    33    1
    29    32    34    1
    30    32    35    1
    31    10    11   am
    32    11    12    2
    33    16    17   ar
    34    17    18   ar
    35    18    14   ar
    36     6     1   ar
    37    29    23   ar
    38    11     4    1
@<TRIPOS>MOLECULE
*****
 35 38 0 0 0
SMALL
GASTEIGER

@<TRIPOS>ATOM
      1 C         142.2461  137.7420  158.2545 C.ar    1  UNL1        0.1219
      2 C         142.9870  138.1501  159.4933 C.ar    1  UNL1        0.0240
      3 C         142.3560  139.1030  160.4648 C.ar    1  UNL1        0.0235
      4 C         140.9842  139.6478  160.1975 C.ar    1  UNL1        0.1166
      5 N         140.2434  139.2397  158.9588 N.ar    1  UNL1       -0.2887
      6 C         140.8743  138.2868  157.9873 C.ar    1  UNL1        0.2772
      7 O         140.1335  137.8787  156.7484 O.2     1  UNL1       -0.2654
      8 C         138.8716  139.7845  158.6915 C.3     1  UNL1        0.1307
      9 C         138.2407  140.7374  159.6630 C.3     1  UNL1        0.1183
     10 N         138.9815  141.1455  160.9018 N.am    1  UNL1       -0.2709
     11 C         140.3533  140.6007  161.1691 C.2     1  UNL1        0.2651
     12 O         141.0941  141.0088  162.4079 O.2     1  UNL1       -0.2683
     13 C         143.9989  133.3050  155.9913 C.3     1  UNL1        0.0538
     14 C         143.6827  134.7496  156.2427 C.ar    1  UNL1        0.0786
     15 C         142.9806  135.3017  157.4477 C.ar    1  UNL1        0.0963
     16 N         142.8771  136.7891  157.2829 N.ar    1  UNL1       -0.2825
     17 C         143.5152  137.1562  155.9760 C.ar    1  UNL1        0.1826
     18 N         144.0131  135.8957  155.3331 N.ar    1  UNL1       -0.2280
     19 C         138.3506  142.0984  161.8734 C.3     1  UNL1        0.1194
     20 C         138.7013  143.5562  161.8293 C.3     1  UNL1        0.0255
     21 C         137.3689  141.5936  162.8890 C.3     1  UNL1        0.2249
     22 O         137.8091  140.6120  163.9343 O.3     1  UNL1       -0.4740
     23 C         138.7345  141.0488  165.0309 C.ar    1  UNL1        0.1350
     24 C         139.1176  142.4935  165.1580 C.ar    1  UNL1        0.0389
     25 C         140.0431  142.9303  166.2548 C.ar    1  UNL1        0.0327
     26 C         140.5854  141.9225  167.2243 C.ar    1  UNL1        0.1400
     27 F         141.5109  142.3593  168.3210 F       1  UNL1       -0.2042
     28 C         140.2023  140.4778  167.0972 C.ar    1  UNL1        0.0286
     29 C         139.2769  140.0410  166.0006 C.ar    1  UNL1        0.0219
     30 C         138.8938  138.5963  165.8734 C.3     1  UNL1        0.1204
     31 C         139.6030  137.7163  164.8872 C.3     1  UNL1        0.0136
     32 C         137.8015  138.0316  166.7326 C.3     1  UNL1        0.4012
     33 F         136.7093  137.4670  167.5918 F       1  UNL1       -0.1697
     34 F         137.6422  139.3629  167.4050 F       1  UNL1       -0.1697
     35 F         137.9608  136.7003  166.0602 F       1  UNL1       -0.1697
@<TRIPOS>BOND
     1    13    14    1
     2    14    15   ar
     3    15    16   ar
     4    16     1    1
     5     1     2   ar
     6     2     3   ar
     7     3     4   ar
     8     4     5   ar
     9     5     6   ar
    10     6     7    2
    11     5     8    1
    12     8     9    1
    13     9    10    1
    14    10    19    1
    15    19    20    1
    16    19    21    1
    17    21    22    1
    18    22    23    1
    19    23    24   ar
    20    24    25   ar
    21    25    26   ar
    22    26    27    1
    23    26    28   ar
    24    28    29   ar
    25    29    30    1
    26    30    31    1
    27    30    32    1
    28    32    33    1
    29    32    34    1
    30    32    35    1
    31    10    11   am
    32    11    12    2
    33    16    17   ar
    34    17    18   ar
    35    18    14   ar
    36     6     1   ar
    37    29    23   ar
    38    11     4    1
@<TRIPOS>MOLECULE
*****
 35 38 0 0 0
SMALL
GASTEIGER

@<TRIPOS>ATOM
      1 C         141.8356  139.1598  159.2948 C.ar    1  UNL1        0.1219
      2 C         141.2720  140.5466  159.3896 C.ar    1  UNL1        0.0240
      3 C         141.4290  141.3350  160.6560 C.ar    1  UNL1        0.0235
      4 C         142.1496  140.7366  161.8275 C.ar    1  UNL1        0.1166
      5 N         142.7132  139.3498  161.7328 N.ar    1  UNL1       -0.2887
      6 C         142.5563  138.5614  160.4664 C.ar    1  UNL1        0.2772
      7 O         143.1199  137.1745  160.3716 O.2     1  UNL1       -0.2654
      8 C         143.4338  138.7514  162.9044 C.3     1  UNL1        0.1307
      9 C         143.5908  139.5398  164.1707 C.3     1  UNL1        0.1183
     10 N         143.0272  140.9267  164.2656 N.am    1  UNL1       -0.2709
     11 C         142.3066  141.5251  163.0940 C.2     1  UNL1        0.2651
     12 O         141.7429  142.9119  163.1887 O.2     1  UNL1       -0.2683
     13 C         139.6891  136.5465  155.2397 C.3     1  UNL1        0.0538
     14 C         140.6920  137.1701  156.1645 C.ar    1  UNL1        0.0786
     15 C         140.3808  137.9275  157.4213 C.ar    1  UNL1        0.0963
     16 N         141.6787  138.3713  158.0284 N.ar    1  UNL1       -0.2825
     17 C         142.7920  137.8883  157.1468 C.ar    1  UNL1        0.1826
     18 N         142.1822  137.1459  155.9949 N.ar    1  UNL1       -0.2280
     19 C         143.1842  141.7151  165.5319 C.3     1  UNL1        0.1194
     20 C         144.1445  142.8662  165.5846 C.3     1  UNL1        0.0255
     21 C         142.3808  141.3524  166.7457 C.3     1  UNL1        0.2249
     22 O         140.9468  140.9376  166.5995 O.3     1  UNL1       -0.4740
     23 C         139.9743  141.8360  165.8945 C.ar    1  UNL1        0.1350
     24 C         140.1178  143.3255  165.9989 C.ar    1  UNL1        0.0389
     25 C         139.1453  144.2239  165.2939 C.ar    1  UNL1        0.0327
     26 C         138.0293  143.6329  164.4845 C.ar    1  UNL1        0.1400
     27 F         137.0568  144.5314  163.7795 F       1  UNL1       -0.2042
     28 C         137.8857  142.1435  164.3801 C.ar    1  UNL1        0.0286
     29 C         138.8582  141.2450  165.0851 C.ar    1  UNL1        0.0219
     30 C         138.7146  139.7556  164.9807 C.3     1  UNL1        0.1204
     31 C         138.0318  138.9894  166.0746 C.3     1  UNL1        0.0136
     32 C         139.2540  139.0323  163.7823 C.3     1  UNL1        0.4012
     33 F         139.7933  138.3090  162.5840 F       1  UNL1       -0.1697
     34 F         140.5428  138.7881  164.5097 F       1  UNL1       -0.1697
     35 F         137.9651  139.2764  163.0548 F       1  UNL1       -0.1697
@<TRIPOS>BOND
     1    13    14    1
     2    14    15   ar
     3    15    16   ar
     4    16     1    1
     5     1     2   ar
     6     2     3   ar
     7     3     4   ar
     8     4     5   ar
     9     5     6   ar
    10     6     7    2
    11     5     8    1
    12     8     9    1
    13     9    10    1
    14    10    19    1
    15    19    20    1
    16    19    21    1
    17    21    22    1
    18    22    23    1
    19    23    24   ar
    20    24    25   ar
    21    25    26   ar
    22    26    27    1
    23    26    28   ar
    24    28    29   ar
    25    29    30    1
    26    30    31    1
    27    30    32    1
    28    32    33    1
    29    32    34    1
    30    32    35    1
    31    10    11   am
    32    11    12    2
    33    16    17   ar
    34    17    18   ar
    35    18    14   ar
    36     6     1   ar
    37    29    23   ar
    38    11     4    1
