@<TRIPOS>MOLECULE
*****
 33 37 0 0 0
SMALL
GASTEIGER

@<TRIPOS>ATOM
      1 N         143.6082  139.8178  164.0733 N.3     1  UNL1       -0.2724
      2 C         144.7301  140.2671  163.1848 C.3     1  UNL1        0.0721
      3 C         145.3698  141.6060  163.4034 C.3     1  UNL1        0.0177
      4 C         144.8876  142.4958  164.5107 C.3     1  UNL1        0.0068
      5 C         144.4054  143.3855  165.6179 C.3     1  UNL1        0.0058
      6 C         143.7657  142.0465  165.3992 C.3     1  UNL1        0.0337
      7 C         143.1260  140.7074  165.1805 C.3     1  UNL1        0.0761
      8 C         142.8396  142.3008  166.5514 C.ar    1  UNL1       -0.0215
      9 C         141.3741  142.5052  166.3048 C.ar    1  UNL1       -0.0043
     10 C         140.4480  142.7595  167.4570 C.ar    1  UNL1        0.0035
     11 C         140.9873  142.8094  168.8558 C.ar    1  UNL1        0.0714
     12 C         142.4527  142.6050  169.1025 C.ar    1  UNL1        0.0035
     13 C         143.3789  142.3507  167.9502 C.ar    1  UNL1       -0.0043
     14 C         140.0611  143.0637  170.0081 C.3     1  UNL1        0.4186
     15 F         139.1349  143.3179  171.1602 F       1  UNL1       -0.1659
     16 F         140.5592  144.4758  170.0968 F       1  UNL1       -0.1659
     17 F         139.5630  141.6516  169.9193 F       1  UNL1       -0.1659
     18 C         142.9685  138.4788  163.8546 C.3     1  UNL1        0.0730
     19 C         141.6520  138.1621  164.5002 C.3     1  UNL1        0.0294
     20 C         140.5627  137.5098  163.7016 C.3     1  UNL1        0.0666
     21 S         139.1651  138.0517  163.7567 S.3     1  UNL1       -0.0756
     22 C         139.0119  141.9179  163.4478 C.ar    1  UNL1        0.2029
     23 N         138.1649  141.6905  164.6648 N.ar    1  UNL1       -0.1250
     24 N         138.1193  140.2146  164.9286 N.ar    1  UNL1       -0.1220
     25 C         138.9380  139.5298  163.8747 C.ar    1  UNL1        0.1933
     26 N         139.4897  140.5825  162.9596 N.ar    1  UNL1       -0.2860
     27 C         140.3653  140.3420  161.7657 C.3     1  UNL1        0.1341
     28 C         138.8280  144.8179  164.9328 C.3     1  UNL1        0.0556
     29 C         139.2414  144.5802  163.5106 C.ar    1  UNL1        0.1001
     30 N         139.6429  145.6338  162.5212 N.ar    1  UNL1       -0.2085
     31 C         139.9755  144.9519  161.2273 C.ar    1  UNL1        0.2849
     32 O         139.7797  143.4769  161.4169 O.2     1  UNL1       -0.4283
     33 C         139.3260  143.2472  162.8280 C.ar    1  UNL1        0.1964
@<TRIPOS>BOND
     1    28    29    1
     2    29    30   ar
     3    30    31   ar
     4    31    32   ar
     5    32    33   ar
     6    33    22    1
     7    22    23   ar
     8    23    24   ar
     9    24    25   ar
    10    25    21    1
    11    21    20    1
    12    20    19    1
    13    19    18    1
    14    18     1    1
    15     1     2    1
    16     2     3    1
    17     3     4    1
    18     4     5    1
    19     5     6    1
    20     6     8    1
    21     8     9   ar
    22     9    10   ar
    23    10    11   ar
    24    11    14    1
    25    14    15    1
    26    14    16    1
    27    14    17    1
    28    11    12   ar
    29    12    13   ar
    30     6     7    1
    31    25    26   ar
    32    26    27    1
    33    33    29   ar
    34    26    22   ar
    35     7     1    1
    36     6     4    1
    37    13     8   ar
@<TRIPOS>MOLECULE
*****
 33 37 0 0 0
SMALL
GASTEIGER

@<TRIPOS>ATOM
      1 N         138.2780  140.4445  162.9590 N.3     1  UNL1       -0.2724
      2 C         138.0226  139.3911  161.9222 C.3     1  UNL1        0.0721
      3 C         138.5164  137.9913  162.1377 C.3     1  UNL1        0.0177
      4 C         139.2657  137.6448  163.3902 C.3     1  UNL1        0.0068
      5 C         140.0150  137.2984  164.6426 C.3     1  UNL1        0.0058
      6 C         139.5211  138.6982  164.4271 C.3     1  UNL1        0.0337
      7 C         139.0272  140.0981  164.2115 C.3     1  UNL1        0.0761
      8 C         140.1012  139.1064  165.7488 C.ar    1  UNL1       -0.0215
      9 C         139.2079  139.6508  166.8239 C.ar    1  UNL1       -0.0043
     10 C         139.7879  140.0589  168.1456 C.ar    1  UNL1        0.0035
     11 C         141.2612  139.9227  168.3922 C.ar    1  UNL1        0.0714
     12 C         142.1545  139.3783  167.3172 C.ar    1  UNL1        0.0035
     13 C         141.5744  138.9701  165.9954 C.ar    1  UNL1       -0.0043
     14 C         141.8412  140.3309  169.7140 C.3     1  UNL1        0.4186
     15 F         142.4212  140.7391  171.0357 F       1  UNL1       -0.1659
     16 F         141.9221  138.8900  170.1235 F       1  UNL1       -0.1659
     17 F         141.7603  141.7716  169.3046 F       1  UNL1       -0.1659
     18 C         137.7841  141.8444  162.7435 C.3     1  UNL1        0.0730
     19 C         137.4555  142.7135  163.9211 C.3     1  UNL1        0.0294
     20 C         137.7600  144.1816  163.8780 C.3     1  UNL1        0.0666
     21 S         138.9016  144.7345  164.6785 S.3     1  UNL1       -0.0756
     22 C         142.1894  142.6714  164.6611 C.ar    1  UNL1        0.2029
     23 N         141.7371  142.4841  166.0790 N.ar    1  UNL1       -0.1250
     24 N         140.4505  143.2341  166.2581 N.ar    1  UNL1       -0.1220
     25 C         140.1075  143.8850  164.9509 C.ar    1  UNL1        0.1933
     26 N         141.1822  143.5372  163.9639 N.ar    1  UNL1       -0.2860
     27 C         141.2397  143.9779  162.5313 C.3     1  UNL1        0.1341
     28 C         142.3046  140.2254  162.5041 C.3     1  UNL1        0.0556
     29 C         143.4837  140.9700  163.0566 C.ar    1  UNL1        0.1001
     30 N         144.9228  140.7210  162.7146 N.ar    1  UNL1       -0.2085
     31 C         145.7592  141.6914  163.4948 C.ar    1  UNL1        0.2849
     32 O         144.8371  142.5402  164.3189 O.2     1  UNL1       -0.4283
     33 C         143.4308  142.0943  164.0481 C.ar    1  UNL1        0.1964
@<TRIPOS>BOND
     1    28    29    1
     2    29    30   ar
     3    30    31   ar
     4    31    32   ar
     5    32    33   ar
     6    33    22    1
     7    22    23   ar
     8    23    24   ar
     9    24    25   ar
    10    25    21    1
    11    21    20    1
    12    20    19    1
    13    19    18    1
    14    18     1    1
    15     1     2    1
    16     2     3    1
    17     3     4    1
    18     4     5    1
    19     5     6    1
    20     6     8    1
    21     8     9   ar
    22     9    10   ar
    23    10    11   ar
    24    11    14    1
    25    14    15    1
    26    14    16    1
    27    14    17    1
    28    11    12   ar
    29    12    13   ar
    30     6     7    1
    31    25    26   ar
    32    26    27    1
    33    33    29   ar
    34    26    22   ar
    35     7     1    1
    36     6     4    1
    37    13     8   ar
@<TRIPOS>MOLECULE
*****
 33 37 0 0 0
SMALL
GASTEIGER

@<TRIPOS>ATOM
      1 N         142.6994  138.7390  163.1178 N.3     1  UNL1       -0.2724
      2 C         141.9567  138.0799  161.9936 C.3     1  UNL1        0.0721
      3 C         140.5254  137.6709  162.1782 C.3     1  UNL1        0.0177
      4 C         139.8367  137.9210  163.4871 C.3     1  UNL1        0.0068
      5 C         139.1482  138.1712  164.7960 C.3     1  UNL1        0.0058
      6 C         140.5794  138.5801  164.6114 C.3     1  UNL1        0.0337
      7 C         142.0108  138.9891  164.4267 C.3     1  UNL1        0.0761
      8 C         140.6106  139.1051  166.0162 C.ar    1  UNL1       -0.0215
      9 C         141.9201  139.2516  166.7332 C.ar    1  UNL1       -0.0043
     10 C         141.9513  139.7765  168.1380 C.ar    1  UNL1        0.0035
     11 C         140.6731  140.1549  168.8258 C.ar    1  UNL1        0.0714
     12 C         139.3638  140.0085  168.1089 C.ar    1  UNL1        0.0035
     13 C         139.3325  139.4835  166.7040 C.ar    1  UNL1       -0.0043
     14 C         140.7044  140.6799  170.2307 C.3     1  UNL1        0.4186
     15 F         140.7356  141.2048  171.6354 F       1  UNL1       -0.1659
     16 F         142.0375  140.0264  170.4452 F       1  UNL1       -0.1659
     17 F         139.3714  141.3333  170.0161 F       1  UNL1       -0.1659
     18 C         144.1306  139.1480  162.9332 C.3     1  UNL1        0.0730
     19 C         144.8515  139.8720  164.0315 C.3     1  UNL1        0.0294
     20 C         145.5420  141.1724  163.7454 C.3     1  UNL1        0.0666
     21 S         144.9460  142.4607  164.2302 S.3     1  UNL1       -0.0756
     22 C         141.0709  142.6024  164.4016 C.ar    1  UNL1        0.2029
     23 N         141.4276  142.6554  165.8577 N.ar    1  UNL1       -0.1250
     24 N         142.9226  142.6088  165.9707 N.ar    1  UNL1       -0.1220
     25 C         143.4899  142.5269  164.5845 C.ar    1  UNL1        0.1933
     26 N         142.3455  142.5230  163.6148 N.ar    1  UNL1       -0.2860
     27 C         142.4562  142.4521  162.1206 C.3     1  UNL1        0.1341
     28 C         139.6252  145.1550  162.9722 C.3     1  UNL1        0.0556
     29 C         139.0188  143.7981  163.1754 C.ar    1  UNL1        0.1001
     30 N         137.6414  143.3764  162.7572 N.ar    1  UNL1       -0.2085
     31 C         137.4547  141.9424  163.1558 C.ar    1  UNL1        0.2849
     32 O         138.7167  141.4779  163.8203 O.2     1  UNL1       -0.4283
     33 C         139.6833  142.6248  163.8324 C.ar    1  UNL1        0.1964
@<TRIPOS>BOND
     1    28    29    1
     2    29    30   ar
     3    30    31   ar
     4    31    32   ar
     5    32    33   ar
     6    33    22    1
     7    22    23   ar
     8    23    24   ar
     9    24    25   ar
    10    25    21    1
    11    21    20    1
    12    20    19    1
    13    19    18    1
    14    18     1    1
    15     1     2    1
    16     2     3    1
    17     3     4    1
    18     4     5    1
    19     5     6    1
    20     6     8    1
    21     8     9   ar
    22     9    10   ar
    23    10    11   ar
    24    11    14    1
    25    14    15    1
    26    14    16    1
    27    14    17    1
    28    11    12   ar
    29    12    13   ar
    30     6     7    1
    31    25    26   ar
    32    26    27    1
    33    33    29   ar
    34    26    22   ar
    35     7     1    1
    36     6     4    1
    37    13     8   ar
@<TRIPOS>MOLECULE
*****
 33 37 0 0 0
SMALL
GASTEIGER

@<TRIPOS>ATOM
      1 N         143.5465  143.7660  163.2634 N.3     1  UNL1       -0.2724
      2 C         144.5014  143.4604  162.1477 C.3     1  UNL1        0.0721
      3 C         145.2213  142.1448  162.1159 C.3     1  UNL1        0.0177
      4 C         144.9863  141.1348  163.1998 C.3     1  UNL1        0.0068
      5 C         144.7514  140.1249  164.2837 C.3     1  UNL1        0.0058
      6 C         144.0314  141.4404  164.3155 C.3     1  UNL1        0.0337
      7 C         143.3115  142.7560  164.3473 C.3     1  UNL1        0.0761
      8 C         143.3445  141.0338  165.5854 C.ar    1  UNL1       -0.0215
      9 C         142.8448  139.6291  165.7512 C.ar    1  UNL1       -0.0043
     10 C         142.1579  139.2225  167.0211 C.ar    1  UNL1        0.0035
     11 C         141.9705  140.2204  168.1252 C.ar    1  UNL1        0.0714
     12 C         142.4701  141.6250  167.9594 C.ar    1  UNL1        0.0035
     13 C         143.1571  142.0317  166.6895 C.ar    1  UNL1       -0.0043
     14 C         141.2835  139.8137  169.3951 C.3     1  UNL1        0.4186
     15 F         140.5966  139.4069  170.6650 F       1  UNL1       -0.1659
     16 F         139.9508  140.0715  168.7568 F       1  UNL1       -0.1659
     17 F         142.6161  139.5558  170.0334 F       1  UNL1       -0.1659
     18 C         142.8265  145.0815  163.2952 C.3     1  UNL1        0.0730
     19 C         141.3931  145.1416  163.7332 C.3     1  UNL1        0.0294
     20 C         140.2940  145.0619  162.7157 C.3     1  UNL1        0.0666
     21 S         138.8965  144.7274  163.1459 S.3     1  UNL1       -0.0756
     22 C         138.1479  140.9942  163.9004 C.ar    1  UNL1        0.2029
     23 N         137.3709  141.1953  162.6331 N.ar    1  UNL1       -0.1250
     24 N         137.5567  142.6182  162.1963 N.ar    1  UNL1       -0.1220
     25 C         138.4486  143.2965  163.1935 C.ar    1  UNL1        0.1933
     26 N         138.8140  142.2928  164.2467 N.ar    1  UNL1       -0.2860
     27 C         139.6914  142.5437  165.4371 C.3     1  UNL1        0.1341
     28 C         139.3361  138.1573  162.8099 C.3     1  UNL1        0.0556
     29 C         138.7885  138.4145  164.1824 C.ar    1  UNL1        0.1001
     30 N         138.6908  137.4129  165.2948 N.ar    1  UNL1       -0.2085
     31 C         138.0844  138.0979  166.4834 C.ar    1  UNL1        0.2849
     32 O         137.8072  139.5229  166.1058 O.2     1  UNL1       -0.4283
     33 C         138.2423  139.7185  164.6837 C.ar    1  UNL1        0.1964
@<TRIPOS>BOND
     1    28    29    1
     2    29    30   ar
     3    30    31   ar
     4    31    32   ar
     5    32    33   ar
     6    33    22    1
     7    22    23   ar
     8    23    24   ar
     9    24    25   ar
    10    25    21    1
    11    21    20    1
    12    20    19    1
    13    19    18    1
    14    18     1    1
    15     1     2    1
    16     2     3    1
    17     3     4    1
    18     4     5    1
    19     5     6    1
    20     6     8    1
    21     8     9   ar
    22     9    10   ar
    23    10    11   ar
    24    11    14    1
    25    14    15    1
    26    14    16    1
    27    14    17    1
    28    11    12   ar
    29    12    13   ar
    30     6     7    1
    31    25    26   ar
    32    26    27    1
    33    33    29   ar
    34    26    22   ar
    35     7     1    1
    36     6     4    1
    37    13     8   ar
@<TRIPOS>MOLECULE
*****
 33 37 0 0 0
SMALL
GASTEIGER

@<TRIPOS>ATOM
      1 N         141.2707  138.7395  163.7473 N.3     1  UNL1       -0.2724
      2 C         140.0695  137.9590  163.3025 C.3     1  UNL1        0.0721
      3 C         138.8512  137.8953  164.1751 C.3     1  UNL1        0.0177
      4 C         138.8340  138.6123  165.4926 C.3     1  UNL1        0.0068
      5 C         138.8169  139.3293  166.8100 C.3     1  UNL1        0.0058
      6 C         140.0352  139.3929  165.9374 C.3     1  UNL1        0.0337
      7 C         141.2536  139.4565  165.0647 C.3     1  UNL1        0.0761
      8 C         140.7188  140.2575  166.9548 C.ar    1  UNL1       -0.0215
      9 C         142.0474  139.8467  167.5170 C.ar    1  UNL1       -0.0043
     10 C         142.7310  140.7112  168.5345 C.ar    1  UNL1        0.0035
     11 C         142.0860  141.9867  168.9897 C.ar    1  UNL1        0.0714
     12 C         140.7574  142.3975  168.4275 C.ar    1  UNL1        0.0035
     13 C         140.0738  141.5329  167.4100 C.ar    1  UNL1       -0.0043
     14 C         142.7696  142.8513  170.0072 C.3     1  UNL1        0.4186
     15 F         143.4532  143.7159  171.0246 F       1  UNL1       -0.1659
     16 F         143.9551  141.9323  169.9915 F       1  UNL1       -0.1659
     17 F         141.5842  143.7702  170.0227 F       1  UNL1       -0.1659
     18 C         142.4891  138.8032  162.8746 C.3     1  UNL1        0.0730
     19 C         143.8459  138.9705  163.4920 C.3     1  UNL1        0.0294
     20 C         144.8229  139.9444  162.9030 C.3     1  UNL1        0.0666
     21 S         145.0007  141.2975  163.5253 S.3     1  UNL1       -0.0756
     22 C         141.8254  143.5268  163.6431 C.ar    1  UNL1        0.2029
     23 N         142.0814  143.3096  165.1050 N.ar    1  UNL1       -0.1250
     24 N         143.3020  142.4481  165.2389 N.ar    1  UNL1       -0.1220
     25 C         143.8004  142.1328  163.8597 C.ar    1  UNL1        0.1933
     26 N         142.8878  142.7996  162.8734 N.ar    1  UNL1       -0.2860
     27 C         143.0152  142.7480  161.3797 C.3     1  UNL1        0.1341
     28 C         138.6394  142.9023  163.9727 C.3     1  UNL1        0.0556
     29 C         139.2395  144.0432  163.2057 C.ar    1  UNL1        0.1001
     30 N         138.4805  145.0973  162.4556 N.ar    1  UNL1       -0.2085
     31 C         139.4759  146.0359  161.8405 C.ar    1  UNL1        0.2849
     32 O         140.8500  145.5618  162.2105 O.2     1  UNL1       -0.4283
     33 C         140.7039  144.3303  163.0542 C.ar    1  UNL1        0.1964
@<TRIPOS>BOND
     1    28    29    1
     2    29    30   ar
     3    30    31   ar
     4    31    32   ar
     5    32    33   ar
     6    33    22    1
     7    22    23   ar
     8    23    24   ar
     9    24    25   ar
    10    25    21    1
    11    21    20    1
    12    20    19    1
    13    19    18    1
    14    18     1    1
    15     1     2    1
    16     2     3    1
    17     3     4    1
    18     4     5    1
    19     5     6    1
    20     6     8    1
    21     8     9   ar
    22     9    10   ar
    23    10    11   ar
    24    11    14    1
    25    14    15    1
    26    14    16    1
    27    14    17    1
    28    11    12   ar
    29    12    13   ar
    30     6     7    1
    31    25    26   ar
    32    26    27    1
    33    33    29   ar
    34    26    22   ar
    35     7     1    1
    36     6     4    1
    37    13     8   ar
@<TRIPOS>MOLECULE
*****
 33 37 0 0 0
SMALL
GASTEIGER

@<TRIPOS>ATOM
      1 N         138.0904  140.3487  163.2235 N.3     1  UNL1       -0.2724
      2 C         137.8072  139.3713  162.1215 C.3     1  UNL1        0.0721
      3 C         138.5138  138.0485  162.0922 C.3     1  UNL1        0.0177
      4 C         139.5037  137.7031  163.1650 C.3     1  UNL1        0.0068
      5 C         140.4936  137.3577  164.2377 C.3     1  UNL1        0.0058
      6 C         139.7870  138.6805  164.2670 C.3     1  UNL1        0.0337
      7 C         139.0803  140.0033  164.2962 C.3     1  UNL1        0.0761
      8 C         140.5220  139.0454  165.5226 C.ar    1  UNL1       -0.0215
      9 C         141.9923  138.7713  165.6375 C.ar    1  UNL1       -0.0043
     10 C         142.7274  139.1362  166.8931 C.ar    1  UNL1        0.0035
     11 C         141.9922  139.7751  168.0338 C.ar    1  UNL1        0.0714
     12 C         140.5220  140.0492  167.9189 C.ar    1  UNL1        0.0035
     13 C         139.7868  139.6843  166.6633 C.ar    1  UNL1       -0.0043
     14 C         142.7273  140.1400  169.2894 C.3     1  UNL1        0.4186
     15 F         143.4624  140.5049  170.5449 F       1  UNL1       -0.1659
     16 F         142.3032  138.8440  169.9143 F       1  UNL1       -0.1659
     17 F         143.1514  141.4360  168.6644 F       1  UNL1       -0.1659
     18 C         137.3838  141.6714  163.2527 C.3     1  UNL1        0.0730
     19 C         137.6893  142.6612  164.3377 C.3     1  UNL1        0.0294
     20 C         137.8371  144.1164  164.0056 C.3     1  UNL1        0.0666
     21 S         139.2034  144.7137  163.8432 S.3     1  UNL1       -0.0756
     22 C         142.1962  142.3970  162.9819 C.ar    1  UNL1        0.2029
     23 N         141.8261  142.9101  161.6218 N.ar    1  UNL1       -0.1250
     24 N         140.6599  143.8404  161.7789 N.ar    1  UNL1       -0.1220
     25 C         140.3093  143.9022  163.2360 C.ar    1  UNL1        0.1933
     26 N         141.2588  143.0101  163.9795 N.ar    1  UNL1       -0.2860
     27 C         141.2691  142.7729  165.4606 C.3     1  UNL1        0.1341
     28 C         144.8030  143.0193  164.8437 C.3     1  UNL1        0.0556
     29 C         144.5066  141.7250  164.1459 C.ar    1  UNL1        0.1001
     30 N         145.3565  140.4894  164.1815 N.ar    1  UNL1       -0.2085
     31 C         144.6835  139.4398  163.3476 C.ar    1  UNL1        0.2849
     32 O         143.4177  140.0266  162.7967 O.2     1  UNL1       -0.4283
     33 C         143.3084  141.4389  163.2901 C.ar    1  UNL1        0.1964
@<TRIPOS>BOND
     1    28    29    1
     2    29    30   ar
     3    30    31   ar
     4    31    32   ar
     5    32    33   ar
     6    33    22    1
     7    22    23   ar
     8    23    24   ar
     9    24    25   ar
    10    25    21    1
    11    21    20    1
    12    20    19    1
    13    19    18    1
    14    18     1    1
    15     1     2    1
    16     2     3    1
    17     3     4    1
    18     4     5    1
    19     5     6    1
    20     6     8    1
    21     8     9   ar
    22     9    10   ar
    23    10    11   ar
    24    11    14    1
    25    14    15    1
    26    14    16    1
    27    14    17    1
    28    11    12   ar
    29    12    13   ar
    30     6     7    1
    31    25    26   ar
    32    26    27    1
    33    33    29   ar
    34    26    22   ar
    35     7     1    1
    36     6     4    1
    37    13     8   ar
@<TRIPOS>MOLECULE
*****
 33 37 0 0 0
SMALL
GASTEIGER

@<TRIPOS>ATOM
      1 N         140.4557  144.6291  163.5162 N.3     1  UNL1       -0.2724
      2 C         139.2710  144.9096  162.6399 C.3     1  UNL1        0.0721
      3 C         138.0196  144.0958  162.7875 C.3     1  UNL1        0.0177
      4 C         137.9529  143.0016  163.8115 C.3     1  UNL1        0.0068
      5 C         137.8862  141.9075  164.8353 C.3     1  UNL1        0.0058
      6 C         139.1376  142.7212  164.6877 C.3     1  UNL1        0.0337
      7 C         140.3891  143.5350  164.5401 C.3     1  UNL1        0.0761
      8 C         139.7831  141.9276  165.7847 C.ar    1  UNL1       -0.0215
      9 C         140.9434  142.5014  166.5427 C.ar    1  UNL1       -0.0043
     10 C         141.5888  141.7078  167.6398 C.ar    1  UNL1        0.0035
     11 C         141.0740  140.3403  167.9788 C.ar    1  UNL1        0.0714
     12 C         139.9138  139.7665  167.2209 C.ar    1  UNL1        0.0035
     13 C         139.2683  140.5601  166.1238 C.ar    1  UNL1       -0.0043
     14 C         141.7196  139.5467  169.0759 C.3     1  UNL1        0.4186
     15 F         142.3651  138.7531  170.1729 F       1  UNL1       -0.1659
     16 F         140.4475  139.6077  169.8685 F       1  UNL1       -0.1659
     17 F         142.9916  139.4857  168.2833 F       1  UNL1       -0.1659
     18 C         141.7071  145.4429  163.3686 C.3     1  UNL1        0.0730
     19 C         143.0131  144.9094  163.8784 C.3     1  UNL1        0.0294
     20 C         144.0952  144.5268  162.9127 C.3     1  UNL1        0.0666
     21 S         143.9959  143.2415  162.1458 S.3     1  UNL1       -0.0756
     22 C         141.5383  140.3728  163.0382 C.ar    1  UNL1        0.2029
     23 N         142.5466  140.2444  164.1414 N.ar    1  UNL1       -0.1250
     24 N         143.5899  141.3034  163.9414 N.ar    1  UNL1       -0.1220
     25 C         143.2265  142.0863  162.7146 C.ar    1  UNL1        0.1933
     26 N         141.9586  141.5111  162.1564 N.ar    1  UNL1       -0.2860
     27 C         141.2375  141.9902  160.9315 C.3     1  UNL1        0.1341
     28 C         141.2009  137.2831  164.0327 C.3     1  UNL1        0.0556
     29 C         140.1682  138.0935  163.3070 C.ar    1  UNL1        0.1001
     30 N         138.7990  137.6260  162.9110 N.ar    1  UNL1       -0.2085
     31 C         138.1079  138.7573  162.2091 C.ar    1  UNL1        0.2849
     32 O         139.0500  139.9240  162.1714 O.2     1  UNL1       -0.4283
     33 C         140.3232  139.5137  162.8499 C.ar    1  UNL1        0.1964
@<TRIPOS>BOND
     1    28    29    1
     2    29    30   ar
     3    30    31   ar
     4    31    32   ar
     5    32    33   ar
     6    33    22    1
     7    22    23   ar
     8    23    24   ar
     9    24    25   ar
    10    25    21    1
    11    21    20    1
    12    20    19    1
    13    19    18    1
    14    18     1    1
    15     1     2    1
    16     2     3    1
    17     3     4    1
    18     4     5    1
    19     5     6    1
    20     6     8    1
    21     8     9   ar
    22     9    10   ar
    23    10    11   ar
    24    11    14    1
    25    14    15    1
    26    14    16    1
    27    14    17    1
    28    11    12   ar
    29    12    13   ar
    30     6     7    1
    31    25    26   ar
    32    26    27    1
    33    33    29   ar
    34    26    22   ar
    35     7     1    1
    36     6     4    1
    37    13     8   ar
@<TRIPOS>MOLECULE
*****
 33 37 0 0 0
SMALL
GASTEIGER

@<TRIPOS>ATOM
      1 N         141.5755  138.3848  163.8814 N.3     1  UNL1       -0.2724
      2 C         140.3776  137.6450  163.3642 C.3     1  UNL1        0.0721
      3 C         139.0741  137.7184  164.1029 C.3     1  UNL1        0.0177
      4 C         138.9686  138.5318  165.3588 C.3     1  UNL1        0.0068
      5 C         138.8632  139.3451  166.6147 C.3     1  UNL1        0.0058
      6 C         140.1666  139.2716  165.8761 C.3     1  UNL1        0.0337
      7 C         141.4700  139.1981  165.1373 C.3     1  UNL1        0.0761
      8 C         140.7973  140.1684  166.8998 C.ar    1  UNL1       -0.0215
      9 C         142.2746  140.0980  167.1502 C.ar    1  UNL1       -0.0043
     10 C         142.9053  140.9947  168.1740 C.ar    1  UNL1        0.0035
     11 C         142.0588  141.9618  168.9473 C.ar    1  UNL1        0.0714
     12 C         140.5815  142.0322  168.6969 C.ar    1  UNL1        0.0035
     13 C         139.9507  141.1355  167.6731 C.ar    1  UNL1       -0.0043
     14 C         142.6896  142.8586  169.9711 C.3     1  UNL1        0.4186
     15 F         143.3203  143.7553  170.9948 F       1  UNL1       -0.1659
     16 F         143.8797  141.9477  170.0356 F       1  UNL1       -0.1659
     17 F         141.4995  143.7693  169.9066 F       1  UNL1       -0.1659
     18 C         142.8789  138.3113  163.1428 C.3     1  UNL1        0.0730
     19 C         142.8967  137.9497  161.6871 C.3     1  UNL1        0.0294
     20 C         143.9281  138.5494  160.7779 C.3     1  UNL1        0.0666
     21 S         143.6010  139.7756  159.9784 S.3     1  UNL1       -0.0756
     22 C         142.2416  142.9221  161.7997 C.ar    1  UNL1        0.2029
     23 N         143.7000  143.2566  161.6925 N.ar    1  UNL1       -0.1250
     24 N         144.3867  142.1187  160.9972 N.ar    1  UNL1       -0.1220
     25 C         143.3528  141.0809  160.6746 C.ar    1  UNL1        0.1933
     26 N         142.0271  141.5774  161.1706 N.ar    1  UNL1       -0.2860
     27 C         140.7169  140.8560  161.0574 C.3     1  UNL1        0.1341
     28 C         141.6487  143.2110  164.9957 C.3     1  UNL1        0.0556
     29 C         140.9112  143.9142  163.8950 C.ar    1  UNL1        0.1001
     30 N         139.7715  144.8737  164.0701 N.ar    1  UNL1       -0.2085
     31 C         139.3398  145.3339  162.7094 C.ar    1  UNL1        0.2849
     32 O         140.2125  144.6588  161.6932 O.2     1  UNL1       -0.4283
     33 C         141.1837  143.7814  162.4260 C.ar    1  UNL1        0.1964
@<TRIPOS>BOND
     1    28    29    1
     2    29    30   ar
     3    30    31   ar
     4    31    32   ar
     5    32    33   ar
     6    33    22    1
     7    22    23   ar
     8    23    24   ar
     9    24    25   ar
    10    25    21    1
    11    21    20    1
    12    20    19    1
    13    19    18    1
    14    18     1    1
    15     1     2    1
    16     2     3    1
    17     3     4    1
    18     4     5    1
    19     5     6    1
    20     6     8    1
    21     8     9   ar
    22     9    10   ar
    23    10    11   ar
    24    11    14    1
    25    14    15    1
    26    14    16    1
    27    14    17    1
    28    11    12   ar
    29    12    13   ar
    30     6     7    1
    31    25    26   ar
    32    26    27    1
    33    33    29   ar
    34    26    22   ar
    35     7     1    1
    36     6     4    1
    37    13     8   ar
@<TRIPOS>MOLECULE
*****
 33 37 0 0 0
SMALL
GASTEIGER

@<TRIPOS>ATOM
      1 N         143.9308  141.9276  161.7179 N.3     1  UNL1       -0.2724
      2 C         145.3453  141.6196  162.1109 C.3     1  UNL1        0.0721
      3 C         145.8064  141.8766  163.5149 C.3     1  UNL1        0.0177
      4 C         144.8532  142.4417  164.5259 C.3     1  UNL1        0.0068
      5 C         143.8999  143.0067  165.5369 C.3     1  UNL1        0.0058
      6 C         143.4387  142.7497  164.1329 C.3     1  UNL1        0.0337
      7 C         142.9776  142.4927  162.7288 C.3     1  UNL1        0.0761
      8 C         142.0718  143.2538  164.4896 C.ar    1  UNL1       -0.0215
      9 C         141.3956  142.7687  165.7377 C.ar    1  UNL1       -0.0043
     10 C         140.0287  143.2728  166.0944 C.ar    1  UNL1        0.0035
     11 C         139.3378  144.2619  165.2031 C.ar    1  UNL1        0.0714
     12 C         140.0139  144.7469  163.9551 C.ar    1  UNL1        0.0035
     13 C         141.3809  144.2429  163.5983 C.ar    1  UNL1       -0.0043
     14 C         137.9708  144.7659  165.5599 C.3     1  UNL1        0.4186
     15 F         136.6038  145.2699  165.9167 F       1  UNL1       -0.1659
     16 F         138.5642  145.5985  166.6576 F       1  UNL1       -0.1659
     17 F         137.3774  143.9334  164.4624 F       1  UNL1       -0.1659
     18 C         143.4697  141.6707  160.3139 C.3     1  UNL1        0.0730
     19 C         142.9789  140.3081  159.9232 C.3     1  UNL1        0.0294
     20 C         143.8977  139.1259  160.0125 C.3     1  UNL1        0.0666
     21 S         143.7242  138.1227  161.1140 S.3     1  UNL1       -0.0756
     22 C         141.3833  139.0388  164.0715 C.ar    1  UNL1        0.2029
     23 N         142.7319  139.2620  164.6893 N.ar    1  UNL1       -0.1250
     24 N         143.7729  138.9460  163.6566 N.ar    1  UNL1       -0.1220
     25 C         143.0678  138.5275  162.4006 C.ar    1  UNL1        0.1933
     26 N         141.5910  138.5848  162.6570 N.ar    1  UNL1       -0.2860
     27 C         140.5113  138.2474  161.6719 C.3     1  UNL1        0.1341
     28 C         139.0764  141.1731  163.1928 C.3     1  UNL1        0.0556
     29 C         138.9993  140.2161  164.3453 C.ar    1  UNL1        0.1001
     30 N         137.8482  140.0721  165.2962 N.ar    1  UNL1       -0.2085
     31 C         138.1971  139.0021  166.2877 C.ar    1  UNL1        0.2849
     32 O         139.5639  138.4847  165.9496 O.2     1  UNL1       -0.4283
     33 C         140.0596  139.2351  164.7491 C.ar    1  UNL1        0.1964
@<TRIPOS>BOND
     1    28    29    1
     2    29    30   ar
     3    30    31   ar
     4    31    32   ar
     5    32    33   ar
     6    33    22    1
     7    22    23   ar
     8    23    24   ar
     9    24    25   ar
    10    25    21    1
    11    21    20    1
    12    20    19    1
    13    19    18    1
    14    18     1    1
    15     1     2    1
    16     2     3    1
    17     3     4    1
    18     4     5    1
    19     5     6    1
    20     6     8    1
    21     8     9   ar
    22     9    10   ar
    23    10    11   ar
    24    11    14    1
    25    14    15    1
    26    14    16    1
    27    14    17    1
    28    11    12   ar
    29    12    13   ar
    30     6     7    1
    31    25    26   ar
    32    26    27    1
    33    33    29   ar
    34    26    22   ar
    35     7     1    1
    36     6     4    1
    37    13     8   ar
