@<TRIPOS>MOLECULE
*****
 24 27 0 0 0
SMALL
GASTEIGER

@<TRIPOS>ATOM
      1 C         140.3896  141.0751  167.4746 C.3     1  UNL1        0.0847
      2 N         140.9780  140.9491  168.8486 N.3     1  UNL1       -0.2676
      3 C         142.0847  139.9693  169.1036 C.3     1  UNL1        0.0896
      4 C         142.6731  139.8433  170.4776 C.3     1  UNL1        0.0862
      5 N         142.1548  140.6971  171.5966 N.3     1  UNL1       -0.2951
      6 C         141.0480  141.6770  171.3417 C.3     1  UNL1        0.0862
      7 C         140.4596  141.8030  169.9677 C.3     1  UNL1        0.0896
      8 H         142.9474  141.2335  171.9492 H       1  UNL1        0.1233
      9 C         138.7214  137.4470  165.3999 C.ar    1  UNL1       -0.0000
     10 C         140.0559  137.9972  164.9916 C.ar    1  UNL1       -0.0003
     11 C         140.6119  139.2066  165.6832 C.ar    1  UNL1       -0.0030
     12 C         139.8336  139.8658  166.7830 C.ar    1  UNL1       -0.0075
     13 C         138.4992  139.3156  167.1913 C.ar    1  UNL1       -0.0030
     14 C         137.9430  138.1062  166.4997 C.ar    1  UNL1       -0.0003
     15 C         140.3572  142.4104  166.7921 C.3     1  UNL1        0.0499
     16 C         141.5055  142.8387  165.9271 C.ar    1  UNL1        0.0131
     17 C         142.8947  142.3642  166.2357 C.ar    1  UNL1       -0.0012
     18 C         144.0429  142.7924  165.3708 C.ar    1  UNL1       -0.0004
     19 C         143.8021  143.6951  164.1974 C.ar    1  UNL1       -0.0012
     20 C         142.4130  144.1697  163.8888 C.ar    1  UNL1        0.0152
     21 C         141.2647  143.7414  164.7537 C.ar    1  UNL1        0.1307
     22 O         140.0149  144.3653  164.2072 O.3     1  UNL1       -0.4757
     23 C         140.3908  145.1792  163.0045 C.3     1  UNL1        0.2101
     24 C         141.8729  145.0582  162.8077 C.3     1  UNL1        0.0767
@<TRIPOS>BOND
     1     9    10   ar
     2    10    11   ar
     3    11    12   ar
     4    12     1    1
     5     1    15    1
     6    15    16    1
     7    16    17   ar
     8    17    18   ar
     9    18    19   ar
    10    19    20   ar
    11    20    21   ar
    12    21    22    1
    13    22    23    1
    14    23    24    1
    15     1     2    1
    16     2     3    1
    17     3     4    1
    18     4     5    1
    19     5     6    1
    20     6     7    1
    21    12    13   ar
    22    13    14   ar
    23    14     9   ar
    24    21    16   ar
    25     7     2    1
    26    24    20    1
    27     5     8    1
@<TRIPOS>MOLECULE
*****
 24 27 0 0 0
SMALL
GASTEIGER

@<TRIPOS>ATOM
      1 C         141.3769  140.8316  167.2338 C.3     1  UNL1        0.0847
      2 N         141.6308  140.8262  168.7121 N.3     1  UNL1       -0.2676
      3 C         142.6126  139.8570  169.3009 C.3     1  UNL1        0.0896
      4 C         142.8665  139.8515  170.7792 C.3     1  UNL1        0.0862
      5 N         142.1386  140.8153  171.6688 N.3     1  UNL1       -0.2951
      6 C         141.1568  141.7845  171.0800 C.3     1  UNL1        0.0862
      7 C         140.9029  141.7900  169.6017 C.3     1  UNL1        0.0896
      8 H         142.8493  141.3696  172.1463 H       1  UNL1        0.1233
      9 C         138.6407  137.7599  165.4095 C.ar    1  UNL1       -0.0000
     10 C         140.0406  137.9178  164.8941 C.ar    1  UNL1       -0.0003
     11 C         140.9526  138.9417  165.5022 C.ar    1  UNL1       -0.0030
     12 C         140.4648  139.8077  166.6257 C.ar    1  UNL1       -0.0075
     13 C         139.0650  139.6498  167.1410 C.ar    1  UNL1       -0.0030
     14 C         138.1529  138.6259  166.5329 C.ar    1  UNL1       -0.0003
     15 C         142.0350  141.8609  166.3635 C.3     1  UNL1        0.0499
     16 C         141.2015  142.8852  165.6521 C.ar    1  UNL1        0.0131
     17 C         139.8635  143.2786  166.2045 C.ar    1  UNL1       -0.0012
     18 C         139.0300  144.3028  165.4932 C.ar    1  UNL1       -0.0004
     19 C         139.5344  144.9338  164.2293 C.ar    1  UNL1       -0.0012
     20 C         140.8723  144.5405  163.6768 C.ar    1  UNL1        0.0152
     21 C         141.7058  143.5162  164.3882 C.ar    1  UNL1        0.1307
     22 O         142.9750  143.3301  163.6106 O.3     1  UNL1       -0.4757
     23 C         142.9259  144.2394  162.4187 C.3     1  UNL1        0.2101
     24 C         141.6264  144.9875  162.4595 C.3     1  UNL1        0.0767
@<TRIPOS>BOND
     1     9    10   ar
     2    10    11   ar
     3    11    12   ar
     4    12     1    1
     5     1    15    1
     6    15    16    1
     7    16    17   ar
     8    17    18   ar
     9    18    19   ar
    10    19    20   ar
    11    20    21   ar
    12    21    22    1
    13    22    23    1
    14    23    24    1
    15     1     2    1
    16     2     3    1
    17     3     4    1
    18     4     5    1
    19     5     6    1
    20     6     7    1
    21    12    13   ar
    22    13    14   ar
    23    14     9   ar
    24    21    16   ar
    25     7     2    1
    26    24    20    1
    27     5     8    1
@<TRIPOS>MOLECULE
*****
 24 27 0 0 0
SMALL
GASTEIGER

@<TRIPOS>ATOM
      1 C         140.3576  140.1899  167.4598 C.3     1  UNL1        0.0847
      2 N         140.4479  140.8374  168.8098 N.3     1  UNL1       -0.2676
      3 C         140.2309  142.3150  168.9489 C.3     1  UNL1        0.0896
      4 C         140.3212  142.9625  170.2989 C.3     1  UNL1        0.0862
      5 N         140.6284  142.1323  171.5099 N.3     1  UNL1       -0.2951
      6 C         140.8453  140.6546  171.3708 C.3     1  UNL1        0.0862
      7 C         140.7551  140.0072  170.0208 C.3     1  UNL1        0.0896
      8 H         139.8497  142.2560  172.1569 H       1  UNL1        0.1233
      9 C         143.9367  140.1655  164.7322 C.ar    1  UNL1       -0.0000
     10 C         143.6269  138.9631  165.5739 C.ar    1  UNL1       -0.0003
     11 C         142.4339  138.9712  166.4831 C.ar    1  UNL1       -0.0030
     12 C         141.5506  140.1817  166.5506 C.ar    1  UNL1       -0.0075
     13 C         141.8604  141.3840  165.7089 C.ar    1  UNL1       -0.0030
     14 C         143.0535  141.3759  164.7997 C.ar    1  UNL1       -0.0003
     15 C         139.0744  139.5505  167.0189 C.3     1  UNL1        0.0499
     16 C         138.8538  139.2331  165.5695 C.ar    1  UNL1        0.0131
     17 C         139.1405  137.8548  165.0515 C.ar    1  UNL1       -0.0012
     18 C         138.9200  137.5374  163.6022 C.ar    1  UNL1       -0.0004
     19 C         138.4128  138.5981  162.6708 C.ar    1  UNL1       -0.0012
     20 C         138.1261  139.9764  163.1887 C.ar    1  UNL1        0.0152
     21 C         138.3466  140.2939  164.6380 C.ar    1  UNL1        0.1307
     22 O         137.9789  141.7312  164.8589 O.3     1  UNL1       -0.4757
     23 C         137.5311  142.3020  163.5460 C.3     1  UNL1        0.2101
     24 C         137.6221  141.2175  162.5138 C.3     1  UNL1        0.0767
@<TRIPOS>BOND
     1     9    10   ar
     2    10    11   ar
     3    11    12   ar
     4    12     1    1
     5     1    15    1
     6    15    16    1
     7    16    17   ar
     8    17    18   ar
     9    18    19   ar
    10    19    20   ar
    11    20    21   ar
    12    21    22    1
    13    22    23    1
    14    23    24    1
    15     1     2    1
    16     2     3    1
    17     3     4    1
    18     4     5    1
    19     5     6    1
    20     6     7    1
    21    12    13   ar
    22    13    14   ar
    23    14     9   ar
    24    21    16   ar
    25     7     2    1
    26    24    20    1
    27     5     8    1
@<TRIPOS>MOLECULE
*****
 24 27 0 0 0
SMALL
GASTEIGER

@<TRIPOS>ATOM
      1 C         140.2015  142.1795  166.3496 C.3     1  UNL1        0.0847
      2 N         140.1195  143.2268  165.2789 N.3     1  UNL1       -0.2676
      3 C         138.7815  143.7031  164.7965 C.3     1  UNL1        0.0896
      4 C         138.6995  144.7504  163.7258 C.3     1  UNL1        0.0862
      5 N         139.9556  145.3214  163.1375 N.3     1  UNL1       -0.2951
      6 C         141.2937  144.8452  163.6199 C.3     1  UNL1        0.0862
      7 C         141.3757  143.7979  164.6906 C.3     1  UNL1        0.0896
      8 H         139.9254  146.3280  163.2994 H       1  UNL1        0.1233
      9 C         142.6750  142.9188  170.0355 C.ar    1  UNL1       -0.0000
     10 C         141.2395  143.3524  169.9961 C.ar    1  UNL1       -0.0003
     11 C         140.4151  143.1059  168.7675 C.ar    1  UNL1       -0.0030
     12 C         141.0260  142.4259  167.5782 C.ar    1  UNL1       -0.0075
     13 C         142.4614  141.9924  167.6176 C.ar    1  UNL1       -0.0030
     14 C         143.2860  142.2388  168.8462 C.ar    1  UNL1       -0.0003
     15 C         139.4591  140.8858  166.1918 C.3     1  UNL1        0.0499
     16 C         140.0635  139.7663  165.3971 C.ar    1  UNL1        0.0131
     17 C         141.3307  139.1137  165.8646 C.ar    1  UNL1       -0.0012
     18 C         141.9351  137.9943  165.0700 C.ar    1  UNL1       -0.0004
     19 C         141.2725  137.5273  163.8079 C.ar    1  UNL1       -0.0012
     20 C         140.0053  138.1799  163.3404 C.ar    1  UNL1        0.0152
     21 C         139.4009  139.2994  164.1350 C.ar    1  UNL1        0.1307
     22 O         138.1544  139.7473  163.4309 O.3     1  UNL1       -0.4757
     23 C         137.9886  138.9046  162.2011 C.3     1  UNL1        0.2101
     24 C         139.1325  137.9359  162.1452 C.3     1  UNL1        0.0767
@<TRIPOS>BOND
     1     9    10   ar
     2    10    11   ar
     3    11    12   ar
     4    12     1    1
     5     1    15    1
     6    15    16    1
     7    16    17   ar
     8    17    18   ar
     9    18    19   ar
    10    19    20   ar
    11    20    21   ar
    12    21    22    1
    13    22    23    1
    14    23    24    1
    15     1     2    1
    16     2     3    1
    17     3     4    1
    18     4     5    1
    19     5     6    1
    20     6     7    1
    21    12    13   ar
    22    13    14   ar
    23    14     9   ar
    24    21    16   ar
    25     7     2    1
    26    24    20    1
    27     5     8    1
@<TRIPOS>MOLECULE
*****
 24 27 0 0 0
SMALL
GASTEIGER

@<TRIPOS>ATOM
      1 C         141.5373  142.0939  164.5156 C.3     1  UNL1        0.0847
      2 N         142.7703  142.3384  163.6972 N.3     1  UNL1       -0.2676
      3 C         143.1383  143.7356  163.2944 C.3     1  UNL1        0.0896
      4 C         144.3713  143.9801  162.4760 C.3     1  UNL1        0.0862
      5 N         145.2365  142.8273  162.0605 N.3     1  UNL1       -0.2951
      6 C         144.8685  141.4300  162.4633 C.3     1  UNL1        0.0862
      7 C         143.6354  141.1856  163.2817 C.3     1  UNL1        0.0896
      8 H         146.1672  143.0069  162.4371 H       1  UNL1        0.1233
      9 C         137.7442  144.3329  163.5935 C.ar    1  UNL1       -0.0000
     10 C         138.2679  143.3138  162.6253 C.ar    1  UNL1       -0.0003
     11 C         139.5322  142.5675  162.9327 C.ar    1  UNL1       -0.0030
     12 C         140.2729  142.8402  164.2082 C.ar    1  UNL1       -0.0075
     13 C         139.7493  143.8593  165.1763 C.ar    1  UNL1       -0.0030
     14 C         138.4849  144.6057  164.8690 C.ar    1  UNL1       -0.0003
     15 C         141.5684  141.1032  165.6414 C.3     1  UNL1        0.0499
     16 C         140.4289  140.1462  165.8301 C.ar    1  UNL1        0.0131
     17 C         139.6248  140.1777  167.0960 C.ar    1  UNL1       -0.0012
     18 C         138.4853  139.2207  167.2847 C.ar    1  UNL1       -0.0004
     19 C         138.1497  138.2323  166.2076 C.ar    1  UNL1       -0.0012
     20 C         138.9538  138.2007  164.9417 C.ar    1  UNL1        0.0152
     21 C         140.0933  139.1577  164.7529 C.ar    1  UNL1        0.1307
     22 O         140.7028  138.8934  163.4080 O.3     1  UNL1       -0.4757
     23 C         139.9398  137.7731  162.7656 C.3     1  UNL1        0.2101
     24 C         138.8589  137.3450  163.7134 C.3     1  UNL1        0.0767
@<TRIPOS>BOND
     1     9    10   ar
     2    10    11   ar
     3    11    12   ar
     4    12     1    1
     5     1    15    1
     6    15    16    1
     7    16    17   ar
     8    17    18   ar
     9    18    19   ar
    10    19    20   ar
    11    20    21   ar
    12    21    22    1
    13    22    23    1
    14    23    24    1
    15     1     2    1
    16     2     3    1
    17     3     4    1
    18     4     5    1
    19     5     6    1
    20     6     7    1
    21    12    13   ar
    22    13    14   ar
    23    14     9   ar
    24    21    16   ar
    25     7     2    1
    26    24    20    1
    27     5     8    1
@<TRIPOS>MOLECULE
*****
 24 27 0 0 0
SMALL
GASTEIGER

@<TRIPOS>ATOM
      1 C         140.5020  141.7142  166.4268 C.3     1  UNL1        0.0847
      2 N         140.2050  141.6897  167.8969 N.3     1  UNL1       -0.2676
      3 C         140.5035  142.8922  168.7424 C.3     1  UNL1        0.0896
      4 C         140.2065  142.8677  170.2125 C.3     1  UNL1        0.0862
      5 N         139.6110  141.6408  170.8371 N.3     1  UNL1       -0.2951
      6 C         139.3125  140.4383  169.9915 C.3     1  UNL1        0.0862
      7 C         139.6095  140.4628  168.5215 C.3     1  UNL1        0.0896
      8 H         138.7301  141.9261  171.2647 H       1  UNL1        0.1233
      9 C         137.8235  144.0038  163.6280 C.ar    1  UNL1       -0.0000
     10 C         137.5734  142.5466  163.8811 C.ar    1  UNL1       -0.0003
     11 C         138.4663  141.7834  164.8141 C.ar    1  UNL1       -0.0030
     12 C         139.6092  142.4774  165.4939 C.ar    1  UNL1       -0.0075
     13 C         139.8592  143.9345  165.2407 C.ar    1  UNL1       -0.0030
     14 C         138.9664  144.6978  164.3078 C.ar    1  UNL1       -0.0003
     15 C         141.6918  140.9755  165.8896 C.3     1  UNL1        0.0499
     16 C         141.4983  139.7136  165.1020 C.ar    1  UNL1        0.0131
     17 C         140.3919  138.7668  165.4623 C.ar    1  UNL1       -0.0012
     18 C         140.1984  137.5050  164.6748 C.ar    1  UNL1       -0.0004
     19 C         141.1111  137.1898  163.5270 C.ar    1  UNL1       -0.0012
     20 C         142.2175  138.1365  163.1667 C.ar    1  UNL1        0.0152
     21 C         142.4110  139.3983  163.9542 C.ar    1  UNL1        0.1307
     22 O         143.5795  140.1350  163.3695 O.3     1  UNL1       -0.4757
     23 C         144.1081  139.3284  162.2206 C.3     1  UNL1        0.2101
     24 C         143.2663  138.0932  162.0952 C.3     1  UNL1        0.0767
@<TRIPOS>BOND
     1     9    10   ar
     2    10    11   ar
     3    11    12   ar
     4    12     1    1
     5     1    15    1
     6    15    16    1
     7    16    17   ar
     8    17    18   ar
     9    18    19   ar
    10    19    20   ar
    11    20    21   ar
    12    21    22    1
    13    22    23    1
    14    23    24    1
    15     1     2    1
    16     2     3    1
    17     3     4    1
    18     4     5    1
    19     5     6    1
    20     6     7    1
    21    12    13   ar
    22    13    14   ar
    23    14     9   ar
    24    21    16   ar
    25     7     2    1
    26    24    20    1
    27     5     8    1
@<TRIPOS>MOLECULE
*****
 24 27 0 0 0
SMALL
GASTEIGER

@<TRIPOS>ATOM
      1 C         140.8463  140.9580  167.1132 C.3     1  UNL1        0.0847
      2 N         141.2528  141.0005  168.5564 N.3     1  UNL1       -0.2676
      3 C         142.3644  140.1218  169.0487 C.3     1  UNL1        0.0896
      4 C         142.7709  140.1642  170.4919 C.3     1  UNL1        0.0862
      5 N         142.0659  141.0854  171.4429 N.3     1  UNL1       -0.2951
      6 C         140.9543  141.9641  170.9506 C.3     1  UNL1        0.0862
      7 C         140.5478  141.9216  169.5074 C.3     1  UNL1        0.0896
      8 H         142.7765  141.7022  171.8366 H       1  UNL1        0.1233
      9 C         138.5262  137.4414  165.5316 C.ar    1  UNL1       -0.0000
     10 C         137.9263  138.3222  166.5874 C.ar    1  UNL1       -0.0003
     11 C         138.6997  139.4944  167.1145 C.ar    1  UNL1       -0.0030
     12 C         140.0729  139.7858  166.5860 C.ar    1  UNL1       -0.0075
     13 C         140.6727  138.9051  165.5303 C.ar    1  UNL1       -0.0030
     14 C         139.8994  137.7329  165.0031 C.ar    1  UNL1       -0.0003
     15 C         141.2131  142.0876  166.1971 C.3     1  UNL1        0.0499
     16 C         140.1394  142.8472  165.4758 C.ar    1  UNL1        0.0131
     17 C         139.4961  144.0363  166.1258 C.ar    1  UNL1       -0.0012
     18 C         138.4225  144.7959  165.4046 C.ar    1  UNL1       -0.0004
     19 C         137.9920  144.3665  164.0334 C.ar    1  UNL1       -0.0012
     20 C         138.6352  143.1775  163.3834 C.ar    1  UNL1        0.0152
     21 C         139.7089  142.4179  164.1045 C.ar    1  UNL1        0.1307
     22 O         140.1575  141.2945  163.2176 O.3     1  UNL1       -0.4757
     23 C         139.3611  141.3599  161.9482 C.3     1  UNL1        0.2101
     24 C         138.4202  142.5236  162.0506 C.3     1  UNL1        0.0767
@<TRIPOS>BOND
     1     9    10   ar
     2    10    11   ar
     3    11    12   ar
     4    12     1    1
     5     1    15    1
     6    15    16    1
     7    16    17   ar
     8    17    18   ar
     9    18    19   ar
    10    19    20   ar
    11    20    21   ar
    12    21    22    1
    13    22    23    1
    14    23    24    1
    15     1     2    1
    16     2     3    1
    17     3     4    1
    18     4     5    1
    19     5     6    1
    20     6     7    1
    21    12    13   ar
    22    13    14   ar
    23    14     9   ar
    24    21    16   ar
    25     7     2    1
    26    24    20    1
    27     5     8    1
@<TRIPOS>MOLECULE
*****
 24 27 0 0 0
SMALL
GASTEIGER

@<TRIPOS>ATOM
      1 C         140.3819  141.5066  166.6790 C.3     1  UNL1        0.0847
      2 N         140.3230  141.5199  168.1778 N.3     1  UNL1       -0.2676
      3 C         140.2188  140.2297  168.9357 C.3     1  UNL1        0.0896
      4 C         140.1599  140.2430  170.4345 C.3     1  UNL1        0.0862
      5 N         140.2051  141.5466  171.1753 N.3     1  UNL1       -0.2951
      6 C         140.3093  142.8368  170.4174 C.3     1  UNL1        0.0862
      7 C         140.3682  142.8234  168.9186 C.3     1  UNL1        0.0896
      8 H         141.0128  141.5041  171.7968 H       1  UNL1        0.1233
      9 C         143.5124  143.9205  164.5287 C.ar    1  UNL1       -0.0000
     10 C         143.9223  142.8947  165.5436 C.ar    1  UNL1       -0.0003
     11 C         142.8788  142.0901  166.2603 C.ar    1  UNL1       -0.0030
     12 C         141.4254  142.3112  165.9623 C.ar    1  UNL1       -0.0075
     13 C         141.0156  143.3370  164.9475 C.ar    1  UNL1       -0.0030
     14 C         142.0590  144.1417  164.2307 C.ar    1  UNL1       -0.0003
     15 C         139.3974  140.6887  165.8969 C.3     1  UNL1        0.0499
     16 C         139.8748  139.5398  165.0590 C.ar    1  UNL1        0.0131
     17 C         141.0454  138.7176  165.5106 C.ar    1  UNL1       -0.0012
     18 C         141.5228  137.5687  164.6728 C.ar    1  UNL1       -0.0004
     19 C         140.8298  137.2420  163.3832 C.ar    1  UNL1       -0.0012
     20 C         139.6593  138.0642  162.9315 C.ar    1  UNL1        0.0152
     21 C         139.1818  139.2131  163.7694 C.ar    1  UNL1        0.1307
     22 O         138.0111  139.8402  163.0723 O.3     1  UNL1       -0.4757
     23 C         137.7650  139.0788  161.8035 C.3     1  UNL1        0.2101
     24 C         138.7836  137.9812  161.7165 C.3     1  UNL1        0.0767
@<TRIPOS>BOND
     1     9    10   ar
     2    10    11   ar
     3    11    12   ar
     4    12     1    1
     5     1    15    1
     6    15    16    1
     7    16    17   ar
     8    17    18   ar
     9    18    19   ar
    10    19    20   ar
    11    20    21   ar
    12    21    22    1
    13    22    23    1
    14    23    24    1
    15     1     2    1
    16     2     3    1
    17     3     4    1
    18     4     5    1
    19     5     6    1
    20     6     7    1
    21    12    13   ar
    22    13    14   ar
    23    14     9   ar
    24    21    16   ar
    25     7     2    1
    26    24    20    1
    27     5     8    1
@<TRIPOS>MOLECULE
*****
 24 27 0 0 0
SMALL
GASTEIGER

@<TRIPOS>ATOM
      1 C         139.7446  142.6160  165.2338 C.3     1  UNL1        0.0847
      2 N         140.0717  143.7591  164.3194 N.3     1  UNL1       -0.2676
      3 C         139.0035  144.3536  163.4501 C.3     1  UNL1        0.0896
      4 C         139.3307  145.4967  162.5357 C.3     1  UNL1        0.0862
      5 N         140.7260  146.0454  162.4905 N.3     1  UNL1       -0.2951
      6 C         141.7942  145.4510  163.3598 C.3     1  UNL1        0.0862
      7 C         141.4670  144.3079  164.2742 C.3     1  UNL1        0.0896
      8 H         140.6620  147.0332  162.7366 H       1  UNL1        0.1233
      9 C         142.3891  141.7323  168.7660 C.ar    1  UNL1       -0.0000
     10 C         142.6767  141.0993  167.4368 C.ar    1  UNL1       -0.0003
     11 C         141.7952  141.3939  166.2594 C.ar    1  UNL1       -0.0030
     12 C         140.6261  142.3214  166.4112 C.ar    1  UNL1       -0.0075
     13 C         140.3386  142.9543  167.7404 C.ar    1  UNL1       -0.0030
     14 C         141.2200  142.6598  168.9178 C.ar    1  UNL1       -0.0003
     15 C         138.5360  141.7674  164.9710 C.3     1  UNL1        0.0499
     16 C         138.6337  140.2735  165.0649 C.ar    1  UNL1        0.0131
     17 C         138.0161  139.5531  166.2267 C.ar    1  UNL1       -0.0012
     18 C         138.1137  138.0593  166.3208 C.ar    1  UNL1       -0.0004
     19 C         138.8289  137.2857  165.2530 C.ar    1  UNL1       -0.0012
     20 C         139.4465  138.0060  164.0912 C.ar    1  UNL1        0.0152
     21 C         139.3489  139.4999  163.9972 C.ar    1  UNL1        0.1307
     22 O         140.0505  139.9323  162.7439 O.3     1  UNL1       -0.4757
     23 C         140.5818  138.7057  162.0634 C.3     1  UNL1        0.2101
     24 C         140.2085  137.5152  162.8961 C.3     1  UNL1        0.0767
@<TRIPOS>BOND
     1     9    10   ar
     2    10    11   ar
     3    11    12   ar
     4    12     1    1
     5     1    15    1
     6    15    16    1
     7    16    17   ar
     8    17    18   ar
     9    18    19   ar
    10    19    20   ar
    11    20    21   ar
    12    21    22    1
    13    22    23    1
    14    23    24    1
    15     1     2    1
    16     2     3    1
    17     3     4    1
    18     4     5    1
    19     5     6    1
    20     6     7    1
    21    12    13   ar
    22    13    14   ar
    23    14     9   ar
    24    21    16   ar
    25     7     2    1
    26    24    20    1
    27     5     8    1
