@<TRIPOS>MOLECULE
*****
 29 32 0 0 0
SMALL
GASTEIGER

@<TRIPOS>ATOM
      1 C         141.7997  143.8881  161.3842 C.2     1  UNL1        0.1518
      2 N         143.1697  144.3926  161.7285 N.2     1  UNL1       -0.1775
      3 C         141.1245  142.8854  162.2725 C.ar    1  UNL1        0.0237
      4 C         141.2931  141.4181  162.0110 C.ar    1  UNL1        0.0030
      5 C         140.6180  140.4156  162.8992 C.ar    1  UNL1        0.0184
      6 C         139.7742  140.8804  164.0490 C.ar    1  UNL1        0.1056
      7 C         139.6056  142.3477  164.3106 C.ar    1  UNL1        0.0184
      8 C         140.2808  143.3502  163.4223 C.ar    1  UNL1        0.0030
      9 S         139.0991  139.8778  164.9373 S.O2    1  UNL1        0.0070
     10 O         140.3680  139.7176  165.7210 O.2     1  UNL1       -0.1687
     11 O         137.8302  140.0379  164.1537 O.2     1  UNL1       -0.1687
     12 C         138.4240  138.8752  165.8256 C.3     1  UNL1        0.1339
     13 C         138.0435  137.4562  166.1285 C.3     1  UNL1        0.0257
     14 C         137.6351  138.5576  167.0612 C.3     1  UNL1        0.0257
     15 N         143.8645  143.8945  162.9611 N.pl3   1  UNL1       -0.2327
     16 C         144.7329  142.6748  163.0517 C.3     1  UNL1        0.1110
     17 C         145.2180  142.5552  164.4661 C.3     1  UNL1        0.0250
     18 C         144.6494  143.7010  165.2496 C.3     1  UNL1        0.0250
     19 C         143.8129  144.5288  164.3195 C.3     1  UNL1        0.1110
     20 N         141.8765  145.1374  159.1075 N.am    1  UNL1       -0.2593
     21 C         141.1049  144.3861  160.1517 C.2     1  UNL1        0.2702
     22 O         139.6385  144.1328  159.9633 O.2     1  UNL1       -0.2681
     23 H         142.8389  145.3036  159.2312 H       1  UNL1        0.1571
     24 C         140.7069  146.1234  154.0537 C.3     1  UNL1        0.0399
     25 C         140.6440  146.0886  155.5520 C.ar    1  UNL1        0.0293
     26 C         139.5807  146.7150  156.4047 C.ar    1  UNL1        0.1030
     27 N         139.9130  146.4349  157.8403 N.ar    1  UNL1       -0.2227
     28 C         141.1816  145.6354  157.8750 C.ar    1  UNL1        0.1655
     29 S         141.6335  145.4214  156.4608 S.2     1  UNL1       -0.0557
@<TRIPOS>BOND
     1    24    25    1
     2    25    26   ar
     3    26    27   ar
     4    27    28   ar
     5    28    20    1
     6    20    21   am
     7    21    22    2
     8    21     1    1
     9     1     2    2
    10     2    15    1
    11    15    16    1
    12    16    17    1
    13    17    18    1
    14    18    19    1
    15     1     3    1
    16     3     4   ar
    17     4     5   ar
    18     5     6   ar
    19     6     9    1
    20     9    10    2
    21     9    11    2
    22     9    12    1
    23    12    13    1
    24    13    14    1
    25     6     7   ar
    26     7     8   ar
    27    28    29   ar
    28    29    25   ar
    29    19    15    1
    30     8     3   ar
    31    14    12    1
    32    20    23    1
@<TRIPOS>MOLECULE
*****
 29 32 0 0 0
SMALL
GASTEIGER

@<TRIPOS>ATOM
      1 C         142.5349  139.6766  170.0964 C.2     1  UNL1        0.1518
      2 N         142.4155  140.8027  171.0801 N.2     1  UNL1       -0.1775
      3 C         141.7460  139.7081  168.8210 C.ar    1  UNL1        0.0237
      4 C         142.4546  139.6677  167.4996 C.ar    1  UNL1        0.0030
      5 C         141.6656  139.6992  166.2243 C.ar    1  UNL1        0.0184
      6 C         140.1680  139.7710  166.2704 C.ar    1  UNL1        0.1056
      7 C         139.4594  139.8113  167.5918 C.ar    1  UNL1        0.0184
      8 C         140.2484  139.7799  168.8671 C.ar    1  UNL1        0.0030
      9 S         139.3790  139.8024  164.9950 S.O2    1  UNL1        0.0070
     10 O         140.5953  140.2735  164.2542 O.2     1  UNL1       -0.1687
     11 O         138.1627  139.3314  165.7357 O.2     1  UNL1       -0.1687
     12 C         138.5901  139.8339  163.7196 C.3     1  UNL1        0.1339
     13 C         138.1422  139.1678  162.4524 C.3     1  UNL1        0.0257
     14 C         137.6716  140.5544  162.7777 C.3     1  UNL1        0.0257
     15 N         141.5071  141.9602  170.7884 N.pl3   1  UNL1       -0.2327
     16 C         141.8258  143.1306  169.9061 C.3     1  UNL1        0.1110
     17 C         140.6362  144.0442  169.9002 C.3     1  UNL1        0.0250
     18 C         139.5822  143.4385  170.7790 C.3     1  UNL1        0.0250
     19 C         140.1204  142.1505  171.3279 C.3     1  UNL1        0.1110
     20 N         144.2572  138.5034  171.6480 N.am    1  UNL1       -0.2593
     21 C         143.4433  138.5192  170.3881 C.2     1  UNL1        0.2702
     22 O         143.5379  137.3775  169.4198 O.2     1  UNL1       -0.2681
     23 H         144.1951  139.2527  172.2835 H       1  UNL1        0.1571
     24 C         146.0250  133.7667  173.1710 C.3     1  UNL1        0.0399
     25 C         145.9781  135.1687  172.6397 C.ar    1  UNL1        0.0293
     26 C         147.1487  135.9607  172.1372 C.ar    1  UNL1        0.1030
     27 N         146.6464  137.3063  171.7046 N.ar    1  UNL1       -0.2227
     28 C         145.1655  137.3459  171.9397 C.ar    1  UNL1        0.1655
     29 S         144.7525  136.0248  172.5176 S.2     1  UNL1       -0.0557
@<TRIPOS>BOND
     1    24    25    1
     2    25    26   ar
     3    26    27   ar
     4    27    28   ar
     5    28    20    1
     6    20    21   am
     7    21    22    2
     8    21     1    1
     9     1     2    2
    10     2    15    1
    11    15    16    1
    12    16    17    1
    13    17    18    1
    14    18    19    1
    15     1     3    1
    16     3     4   ar
    17     4     5   ar
    18     5     6   ar
    19     6     9    1
    20     9    10    2
    21     9    11    2
    22     9    12    1
    23    12    13    1
    24    13    14    1
    25     6     7   ar
    26     7     8   ar
    27    28    29   ar
    28    29    25   ar
    29    19    15    1
    30     8     3   ar
    31    14    12    1
    32    20    23    1
@<TRIPOS>MOLECULE
*****
 29 32 0 0 0
SMALL
GASTEIGER

@<TRIPOS>ATOM
      1 C         143.4184  140.1091  160.4354 C.2     1  UNL1        0.1518
      2 N         144.4689  141.1476  160.6960 N.2     1  UNL1       -0.1775
      3 C         142.4473  139.7369  161.5164 C.ar    1  UNL1        0.0237
      4 C         142.7765  138.6277  162.4710 C.ar    1  UNL1        0.0030
      5 C         141.8055  138.2555  163.5519 C.ar    1  UNL1        0.0184
      6 C         140.5052  138.9926  163.6783 C.ar    1  UNL1        0.1056
      7 C         140.1759  140.1018  162.7238 C.ar    1  UNL1        0.0184
      8 C         141.1470  140.4739  161.6428 C.ar    1  UNL1        0.0030
      9 S         139.5341  138.6204  164.7594 S.O2    1  UNL1        0.0070
     10 O         138.4646  138.4150  163.7279 O.2     1  UNL1       -0.1687
     11 O         140.6035  138.8257  165.7908 O.2     1  UNL1       -0.1687
     12 C         138.5630  138.2482  165.8403 C.3     1  UNL1        0.1339
     13 C         137.7445  137.2111  166.5505 C.3     1  UNL1        0.0257
     14 C         137.6996  138.6407  167.0024 C.3     1  UNL1        0.0257
     15 N         144.5483  141.8140  162.0376 N.pl3   1  UNL1       -0.2327
     16 C         143.8282  143.0653  162.4445 C.3     1  UNL1        0.1110
     17 C         144.1966  143.3706  163.8661 C.3     1  UNL1        0.0250
     18 C         145.1444  142.3079  164.3378 C.3     1  UNL1        0.0250
     19 C         145.3618  141.3459  163.2077 C.3     1  UNL1        0.1110
     20 N         142.3727  138.3171  158.8716 N.am    1  UNL1       -0.2593
     21 C         143.3389  139.4428  159.0939 C.2     1  UNL1        0.2702
     22 O         144.2257  139.9020  157.9747 O.2     1  UNL1       -0.2681
     23 H         141.7906  138.0157  159.6062 H       1  UNL1        0.1571
     24 C         140.5930  136.6629  154.1837 C.3     1  UNL1        0.0399
     25 C         141.4752  136.8904  155.3753 C.ar    1  UNL1        0.0293
     26 C         142.8668  136.3604  155.5562 C.ar    1  UNL1        0.1030
     27 N         143.3723  136.8303  156.8879 N.ar    1  UNL1       -0.2227
     28 C         142.2932  137.6508  157.5301 C.ar    1  UNL1        0.1655
     29 S         141.1207  137.6879  156.5952 S.2     1  UNL1       -0.0557
@<TRIPOS>BOND
     1    24    25    1
     2    25    26   ar
     3    26    27   ar
     4    27    28   ar
     5    28    20    1
     6    20    21   am
     7    21    22    2
     8    21     1    1
     9     1     2    2
    10     2    15    1
    11    15    16    1
    12    16    17    1
    13    17    18    1
    14    18    19    1
    15     1     3    1
    16     3     4   ar
    17     4     5   ar
    18     5     6   ar
    19     6     9    1
    20     9    10    2
    21     9    11    2
    22     9    12    1
    23    12    13    1
    24    13    14    1
    25     6     7   ar
    26     7     8   ar
    27    28    29   ar
    28    29    25   ar
    29    19    15    1
    30     8     3   ar
    31    14    12    1
    32    20    23    1
@<TRIPOS>MOLECULE
*****
 29 32 0 0 0
SMALL
GASTEIGER

@<TRIPOS>ATOM
      1 C         140.0163  140.4867  161.9863 C.2     1  UNL1        0.1518
      2 N         139.2396  141.7071  161.5898 N.2     1  UNL1       -0.1775
      3 C         140.4779  140.3192  163.4037 C.ar    1  UNL1        0.0237
      4 C         139.5977  139.6277  164.4023 C.ar    1  UNL1        0.0030
      5 C         140.0592  139.4601  165.8196 C.ar    1  UNL1        0.0184
      6 C         141.4009  139.9841  166.2384 C.ar    1  UNL1        0.1056
      7 C         142.2810  140.6757  165.2399 C.ar    1  UNL1        0.0184
      8 C         141.8195  140.8432  163.8225 C.ar    1  UNL1        0.0030
      9 S         141.8624  139.8166  167.6558 S.O2    1  UNL1        0.0070
     10 O         143.0670  139.0634  167.1746 O.2     1  UNL1       -0.1687
     11 O         140.6578  140.5698  168.1371 O.2     1  UNL1       -0.1687
     12 C         142.3239  139.6490  169.0732 C.3     1  UNL1        0.1339
     13 C         142.8468  140.2422  170.3478 C.3     1  UNL1        0.0257
     14 C         142.6005  138.7656  170.2534 C.3     1  UNL1        0.0257
     15 N         138.9243  142.7600  162.6107 N.pl3   1  UNL1       -0.2327
     16 C         137.7189  142.7901  163.5029 C.3     1  UNL1        0.1110
     17 C         137.8087  144.0163  164.3622 C.3     1  UNL1        0.0250
     18 C         139.0697  144.7440  164.0011 C.3     1  UNL1        0.0250
     19 C         139.7592  143.9675  162.9186 C.3     1  UNL1        0.1110
     20 N         141.1317  139.7867  159.7466 N.am    1  UNL1       -0.2593
     21 C         140.3316  139.4339  160.9655 C.2     1  UNL1        0.2702
     22 O         139.8469  138.0282  161.1635 O.2     1  UNL1       -0.2681
     23 H         141.4498  140.7093  159.6167 H       1  UNL1        0.1571
     24 C         140.7254  136.4911  155.6412 C.3     1  UNL1        0.0399
     25 C         141.2602  137.2190  156.8387 C.ar    1  UNL1        0.0293
     26 C         142.6040  137.0084  157.4711 C.ar    1  UNL1        0.1030
     27 N         142.7194  137.9446  158.6374 N.ar    1  UNL1       -0.2227
     28 C         141.4469  138.7339  158.7258 C.ar    1  UNL1        0.1655
     29 S         140.5451  138.2855  157.6142 S.2     1  UNL1       -0.0557
@<TRIPOS>BOND
     1    24    25    1
     2    25    26   ar
     3    26    27   ar
     4    27    28   ar
     5    28    20    1
     6    20    21   am
     7    21    22    2
     8    21     1    1
     9     1     2    2
    10     2    15    1
    11    15    16    1
    12    16    17    1
    13    17    18    1
    14    18    19    1
    15     1     3    1
    16     3     4   ar
    17     4     5   ar
    18     5     6   ar
    19     6     9    1
    20     9    10    2
    21     9    11    2
    22     9    12    1
    23    12    13    1
    24    13    14    1
    25     6     7   ar
    26     7     8   ar
    27    28    29   ar
    28    29    25   ar
    29    19    15    1
    30     8     3   ar
    31    14    12    1
    32    20    23    1
@<TRIPOS>MOLECULE
*****
 29 32 0 0 0
SMALL
GASTEIGER

@<TRIPOS>ATOM
      1 C         140.7385  141.7822  162.2805 C.2     1  UNL1        0.1518
      2 N         140.3689  140.4387  161.7253 N.2     1  UNL1       -0.1775
      3 C         141.0259  141.9354  163.7448 C.ar    1  UNL1        0.0237
      4 C         139.9087  142.2290  164.7017 C.ar    1  UNL1        0.0030
      5 C         140.1961  142.3821  166.1659 C.ar    1  UNL1        0.0184
      6 C         141.6007  142.2416  166.6732 C.ar    1  UNL1        0.1056
      7 C         142.7179  141.9480  165.7163 C.ar    1  UNL1        0.0184
      8 C         142.4305  141.7949  164.2521 C.ar    1  UNL1        0.0030
      9 S         141.8880  142.3948  168.1375 S.O2    1  UNL1        0.0070
     10 O         140.4262  142.6012  168.4027 O.2     1  UNL1       -0.1687
     11 O         143.3499  142.1883  167.8722 O.2     1  UNL1       -0.1687
     12 C         142.1753  142.5479  169.6017 C.3     1  UNL1        0.1339
     13 C         141.9355  142.1326  171.0229 C.3     1  UNL1        0.0257
     14 C         142.9128  143.2285  170.7166 C.3     1  UNL1        0.0257
     15 N         140.2866  139.2483  162.6343 N.pl3   1  UNL1       -0.2327
     16 C         139.0726  138.8007  163.3932 C.3     1  UNL1        0.1110
     17 C         139.4396  137.5723  164.1719 C.3     1  UNL1        0.0250
     18 C         140.8805  137.2608  163.8943 C.3     1  UNL1        0.0250
     19 C         141.4039  138.2966  162.9440 C.3     1  UNL1        0.1110
     20 N         141.0183  142.7783  159.8973 N.am    1  UNL1       -0.2593
     21 C         140.8208  142.9726  161.3716 C.2     1  UNL1        0.2702
     22 O         140.7055  144.3573  161.9368 O.2     1  UNL1       -0.2681
     23 H         141.0940  141.8695  159.5264 H       1  UNL1        0.1571
     24 C         139.7152  146.5876  156.4809 C.3     1  UNL1        0.0399
     25 C         140.5016  145.7196  157.4180 C.ar    1  UNL1        0.0293
     26 C         141.9529  145.8813  157.7612 C.ar    1  UNL1        0.1030
     27 N         142.3230  144.7992  158.7318 N.ar    1  UNL1       -0.2227
     28 C         141.1006  143.9687  158.9884 C.ar    1  UNL1        0.1655
     29 S         139.9749  144.5376  158.1764 S.2     1  UNL1       -0.0557
@<TRIPOS>BOND
     1    24    25    1
     2    25    26   ar
     3    26    27   ar
     4    27    28   ar
     5    28    20    1
     6    20    21   am
     7    21    22    2
     8    21     1    1
     9     1     2    2
    10     2    15    1
    11    15    16    1
    12    16    17    1
    13    17    18    1
    14    18    19    1
    15     1     3    1
    16     3     4   ar
    17     4     5   ar
    18     5     6   ar
    19     6     9    1
    20     9    10    2
    21     9    11    2
    22     9    12    1
    23    12    13    1
    24    13    14    1
    25     6     7   ar
    26     7     8   ar
    27    28    29   ar
    28    29    25   ar
    29    19    15    1
    30     8     3   ar
    31    14    12    1
    32    20    23    1
@<TRIPOS>MOLECULE
*****
 29 32 0 0 0
SMALL
GASTEIGER

@<TRIPOS>ATOM
      1 C         141.9176  141.0475  161.7637 C.2     1  UNL1        0.1518
      2 N         142.4880  142.3482  161.2810 N.2     1  UNL1       -0.1775
      3 C         141.5022  140.8967  163.1972 C.ar    1  UNL1        0.0237
      4 C         140.0766  141.1409  163.5945 C.ar    1  UNL1        0.0030
      5 C         139.6612  140.9901  165.0279 C.ar    1  UNL1        0.0184
      6 C         140.6715  140.5951  166.0640 C.ar    1  UNL1        0.1056
      7 C         142.0971  140.3510  165.6666 C.ar    1  UNL1        0.0184
      8 C         142.5125  140.5018  164.2332 C.ar    1  UNL1        0.0030
      9 S         140.2561  140.4444  167.4975 S.O2    1  UNL1        0.0070
     10 O         139.2399  139.4171  167.0949 O.2     1  UNL1       -0.1687
     11 O         141.2722  141.4716  167.9001 O.2     1  UNL1       -0.1687
     12 C         139.8406  140.2935  168.9308 C.3     1  UNL1        0.1339
     13 C         140.1711  139.9281  170.3476 C.3     1  UNL1        0.0257
     14 C         138.7905  140.3978  169.9968 C.3     1  UNL1        0.0257
     15 N         142.6429  143.4980  162.2318 N.pl3   1  UNL1       -0.2327
     16 C         143.9138  143.9165  162.9097 C.3     1  UNL1        0.1110
     17 C         143.6105  145.1084  163.7684 C.3     1  UNL1        0.0250
     18 C         142.1520  145.4265  163.6212 C.3     1  UNL1        0.0250
     19 C         141.5540  144.4313  162.6715 C.3     1  UNL1        0.1110
     20 N         142.1869  140.0454  159.3818 N.am    1  UNL1       -0.2593
     21 C         141.7627  139.8977  160.8130 C.2     1  UNL1        0.2702
     22 O         141.1836  138.6001  161.2935 O.2     1  UNL1       -0.2681
     23 H         142.5670  140.8971  159.0665 H       1  UNL1        0.1571
     24 C         140.1920  136.7460  155.7742 C.3     1  UNL1        0.0399
     25 C         141.1150  137.3790  156.7729 C.ar    1  UNL1        0.0293
     26 C         142.4722  136.8733  157.1634 C.ar    1  UNL1        0.1030
     27 N         143.0388  137.8106  158.1882 N.ar    1  UNL1       -0.2227
     28 C         142.0320  138.8956  158.4311 C.ar    1  UNL1        0.1655
     29 S         140.8430  138.6288  157.5564 S.2     1  UNL1       -0.0557
@<TRIPOS>BOND
     1    24    25    1
     2    25    26   ar
     3    26    27   ar
     4    27    28   ar
     5    28    20    1
     6    20    21   am
     7    21    22    2
     8    21     1    1
     9     1     2    2
    10     2    15    1
    11    15    16    1
    12    16    17    1
    13    17    18    1
    14    18    19    1
    15     1     3    1
    16     3     4   ar
    17     4     5   ar
    18     5     6   ar
    19     6     9    1
    20     9    10    2
    21     9    11    2
    22     9    12    1
    23    12    13    1
    24    13    14    1
    25     6     7   ar
    26     7     8   ar
    27    28    29   ar
    28    29    25   ar
    29    19    15    1
    30     8     3   ar
    31    14    12    1
    32    20    23    1
@<TRIPOS>MOLECULE
*****
 29 32 0 0 0
SMALL
GASTEIGER

@<TRIPOS>ATOM
      1 C         141.0505  140.1905  164.1225 C.2     1  UNL1        0.1518
      2 N         141.6998  138.8486  163.9561 N.2     1  UNL1       -0.1775
      3 C         141.0808  141.1829  162.9981 C.ar    1  UNL1        0.0237
      4 C         142.2099  142.1650  162.8947 C.ar    1  UNL1        0.0030
      5 C         142.2402  143.1573  161.7703 C.ar    1  UNL1        0.0184
      6 C         141.1413  143.1677  160.7493 C.ar    1  UNL1        0.1056
      7 C         140.0122  142.1857  160.8527 C.ar    1  UNL1        0.0184
      8 C         139.9820  141.1933  161.9771 C.ar    1  UNL1        0.0030
      9 S         141.1716  144.1601  159.6249 S.O2    1  UNL1        0.0070
     10 O         139.6743  144.2435  159.6583 O.2     1  UNL1       -0.1687
     11 O         142.6689  144.0767  159.5915 O.2     1  UNL1       -0.1687
     12 C         141.2018  145.1525  158.5006 C.3     1  UNL1        0.1339
     13 C         141.9773  145.9821  157.5207 C.3     1  UNL1        0.0257
     14 C         140.4786  146.0417  157.5330 C.3     1  UNL1        0.0257
     15 N         142.3793  138.4991  162.6652 N.pl3   1  UNL1       -0.2327
     16 C         141.7329  137.8551  161.4747 C.3     1  UNL1        0.1110
     17 C         142.7786  137.6902  160.4121 C.3     1  UNL1        0.0250
     18 C         144.0714  138.2324  160.9458 C.3     1  UNL1        0.0250
     19 C         143.8246  138.7323  162.3384 C.3     1  UNL1        0.1110
     20 N         141.0808  140.3241  166.7170 N.am    1  UNL1       -0.2593
     21 C         140.3710  140.5400  165.4132 C.2     1  UNL1        0.2702
     22 O         138.9818  141.1055  165.4003 O.2     1  UNL1       -0.2681
     23 H         141.9927  139.9530  166.7255 H       1  UNL1        0.1571
     24 C         139.5407  142.9512  171.0306 C.3     1  UNL1        0.0399
     25 C         139.6934  141.8812  169.9905 C.ar    1  UNL1        0.0293
     26 C         139.0179  140.5419  169.9975 C.ar    1  UNL1        0.1030
     27 N         139.4555  139.7956  168.7721 N.ar    1  UNL1       -0.2227
     28 C         140.4013  140.6737  168.0077 C.ar    1  UNL1        0.1655
     29 S         140.5484  141.9626  168.7607 S.2     1  UNL1       -0.0557
@<TRIPOS>BOND
     1    24    25    1
     2    25    26   ar
     3    26    27   ar
     4    27    28   ar
     5    28    20    1
     6    20    21   am
     7    21    22    2
     8    21     1    1
     9     1     2    2
    10     2    15    1
    11    15    16    1
    12    16    17    1
    13    17    18    1
    14    18    19    1
    15     1     3    1
    16     3     4   ar
    17     4     5   ar
    18     5     6   ar
    19     6     9    1
    20     9    10    2
    21     9    11    2
    22     9    12    1
    23    12    13    1
    24    13    14    1
    25     6     7   ar
    26     7     8   ar
    27    28    29   ar
    28    29    25   ar
    29    19    15    1
    30     8     3   ar
    31    14    12    1
    32    20    23    1
@<TRIPOS>MOLECULE
*****
 29 32 0 0 0
SMALL
GASTEIGER

@<TRIPOS>ATOM
      1 C         140.1877  140.3696  161.5770 C.2     1  UNL1        0.1518
      2 N         139.4718  141.5747  161.0427 N.2     1  UNL1       -0.1775
      3 C         140.4995  140.2703  163.0409 C.ar    1  UNL1        0.0237
      4 C         141.8412  140.7033  163.5530 C.ar    1  UNL1        0.0030
      5 C         142.1529  140.6039  165.0169 C.ar    1  UNL1        0.0184
      6 C         141.1229  140.0716  165.9686 C.ar    1  UNL1        0.1056
      7 C         139.7812  139.6387  165.4565 C.ar    1  UNL1        0.0184
      8 C         139.4695  139.7380  163.9926 C.ar    1  UNL1        0.0030
      9 S         141.4347  139.9723  167.4325 S.O2    1  UNL1        0.0070
     10 O         139.9750  139.7994  167.7316 O.2     1  UNL1       -0.1687
     11 O         142.8943  140.1452  167.1335 O.2     1  UNL1       -0.1687
     12 C         141.7464  139.8730  168.8964 C.3     1  UNL1        0.1339
     13 C         141.6951  140.4551  170.2779 C.3     1  UNL1        0.0257
     14 C         142.3376  139.1189  170.0504 C.3     1  UNL1        0.0257
     15 N         139.0677  142.6804  161.9724 N.pl3   1  UNL1       -0.2327
     16 C         139.9217  143.8431  162.3833 C.3     1  UNL1        0.1110
     17 C         139.1205  144.6987  163.3192 C.3     1  UNL1        0.0250
     18 C         137.7713  144.0649  163.4867 C.3     1  UNL1        0.0250
     19 C         137.7387  142.8175  162.6543 C.3     1  UNL1        0.1110
     20 N         140.9330  139.5717  159.2195 N.am    1  UNL1       -0.2593
     21 C         140.5918  139.2639  160.6474 C.2     1  UNL1        0.2702
     22 O         140.6546  137.8505  161.1457 O.2     1  UNL1       -0.2681
     23 H         140.8918  140.4993  158.8924 H       1  UNL1        0.1571
     24 C         140.8432  135.9772  155.3526 C.3     1  UNL1        0.0399
     25 C         141.2958  136.8138  156.5125 C.ar    1  UNL1        0.0293
     26 C         142.6221  136.7152  157.2063 C.ar    1  UNL1        0.1030
     27 N         142.6476  137.7363  158.3048 N.ar    1  UNL1       -0.2227
     28 C         141.3371  138.4660  158.2899 C.ar    1  UNL1        0.1655
     29 S         140.5017  137.8959  157.1822 S.2     1  UNL1       -0.0557
@<TRIPOS>BOND
     1    24    25    1
     2    25    26   ar
     3    26    27   ar
     4    27    28   ar
     5    28    20    1
     6    20    21   am
     7    21    22    2
     8    21     1    1
     9     1     2    2
    10     2    15    1
    11    15    16    1
    12    16    17    1
    13    17    18    1
    14    18    19    1
    15     1     3    1
    16     3     4   ar
    17     4     5   ar
    18     5     6   ar
    19     6     9    1
    20     9    10    2
    21     9    11    2
    22     9    12    1
    23    12    13    1
    24    13    14    1
    25     6     7   ar
    26     7     8   ar
    27    28    29   ar
    28    29    25   ar
    29    19    15    1
    30     8     3   ar
    31    14    12    1
    32    20    23    1
@<TRIPOS>MOLECULE
*****
 29 32 0 0 0
SMALL
GASTEIGER

@<TRIPOS>ATOM
      1 C         142.9297  138.3228  157.3074 C.2     1  UNL1        0.1518
      2 N         143.2733  139.6308  156.6585 N.2     1  UNL1       -0.1775
      3 C         142.2133  138.3046  158.6252 C.ar    1  UNL1        0.0237
      4 C         140.7265  138.4966  158.6733 C.ar    1  UNL1        0.0030
      5 C         140.0102  138.4785  159.9911 C.ar    1  UNL1        0.0184
      6 C         140.7808  138.2682  161.2608 C.ar    1  UNL1        0.1056
      7 C         142.2676  138.0762  161.2126 C.ar    1  UNL1        0.0184
      8 C         142.9839  138.0944  159.8948 C.ar    1  UNL1        0.0030
      9 S         140.0644  138.2501  162.5786 S.O2    1  UNL1        0.0070
     10 O         141.3616  138.5052  163.2872 O.2     1  UNL1       -0.1687
     11 O         138.7672  137.9949  161.8700 O.2     1  UNL1       -0.1687
     12 C         139.3482  138.2319  163.8964 C.3     1  UNL1        0.1339
     13 C         138.8672  137.4822  165.1032 C.3     1  UNL1        0.0257
     14 C         138.5885  138.9502  164.9720 C.3     1  UNL1        0.0257
     15 N         142.9006  140.9206  157.3275 N.pl3   1  UNL1       -0.2327
     16 C         143.7210  141.6546  158.3465 C.3     1  UNL1        0.1110
     17 C         142.9695  142.8905  158.7437 C.3     1  UNL1        0.0250
     18 C         141.6845  142.9204  157.9702 C.3     1  UNL1        0.0250
     19 C         141.6420  141.7029  157.0950 C.3     1  UNL1        0.1110
     20 N         142.5022  135.7921  156.9034 N.am    1  UNL1       -0.2593
     21 C         143.3023  137.0330  156.6385 C.2     1  UNL1        0.2702
     22 O         144.4751  136.9840  155.7045 O.2     1  UNL1       -0.2681
     23 H         141.7325  135.8243  157.5164 H       1  UNL1        0.1571
     24 C         144.7974  131.1500  155.8723 C.3     1  UNL1        0.0399
     25 C         143.9299  132.3685  155.7606 C.ar    1  UNL1        0.0293
     26 C         142.9668  132.6665  154.6497 C.ar    1  UNL1        0.1030
     27 N         142.3148  133.9852  154.9427 N.ar    1  UNL1       -0.2227
     28 C         142.8749  134.5023  156.2345 C.ar    1  UNL1        0.1655
     29 S         143.8730  133.5032  156.7400 S.2     1  UNL1       -0.0557
@<TRIPOS>BOND
     1    24    25    1
     2    25    26   ar
     3    26    27   ar
     4    27    28   ar
     5    28    20    1
     6    20    21   am
     7    21    22    2
     8    21     1    1
     9     1     2    2
    10     2    15    1
    11    15    16    1
    12    16    17    1
    13    17    18    1
    14    18    19    1
    15     1     3    1
    16     3     4   ar
    17     4     5   ar
    18     5     6   ar
    19     6     9    1
    20     9    10    2
    21     9    11    2
    22     9    12    1
    23    12    13    1
    24    13    14    1
    25     6     7   ar
    26     7     8   ar
    27    28    29   ar
    28    29    25   ar
    29    19    15    1
    30     8     3   ar
    31    14    12    1
    32    20    23    1
