@<TRIPOS>MOLECULE
*****
 29 32 0 0 0
SMALL
GASTEIGER

@<TRIPOS>ATOM
      1 C         140.8402  142.0293  167.3193 C.3     1  UNL1        0.1686
      2 C         140.3662  142.5073  168.6598 C.3     1  UNL1        0.0595
      3 C         141.3564  142.7700  169.7554 C.3     1  UNL1        0.0611
      4 C         142.6439  142.8963  170.5147 C.3     1  UNL1        0.0175
      5 C         143.7629  142.4961  169.5994 C.3     1  UNL1        0.0175
      6 C         143.1670  142.1225  168.2745 C.3     1  UNL1        0.0611
      7 C         142.3044  141.8141  167.0745 C.3     1  UNL1        0.0595
      8 N         141.6797  142.2918  168.3709 N.3     1  UNL1       -0.2750
      9 O         139.8500  141.7665  166.2236 O.3     1  UNL1       -0.4791
     10 C         139.2243  138.3100  164.3769 C.ar    1  UNL1        0.0561
     11 C         138.4440  137.5679  165.4210 C.ar    1  UNL1        0.0047
     12 C         138.1323  138.2254  166.7328 C.ar    1  UNL1        0.0033
     13 C         138.6010  139.6249  167.0002 C.ar    1  UNL1        0.0369
     14 C         139.3813  140.3670  165.9560 C.ar    1  UNL1        0.1385
     15 C         139.6930  139.7096  164.6444 C.ar    1  UNL1        0.0414
     16 N         138.5178  137.6566  161.9635 N.am    1  UNL1       -0.3253
     17 C         139.5359  137.6525  163.0651 C.2     1  UNL1        0.2428
     18 O         140.8657  136.9909  162.8550 O.2     1  UNL1       -0.2704
     19 H         138.7224  137.2250  161.1026 H       1  UNL1        0.1453
     20 H         137.6451  138.0908  162.1015 H       1  UNL1        0.1453
     21 C         140.6895  142.0291  167.2753 C.3     1  UNL1        0.0723
     22 C         140.9221  142.5901  165.9037 C.3     1  UNL1        0.0220
     23 C         140.0282  143.6722  165.3746 C.3     1  UNL1        0.0278
     24 C         140.2743  144.2489  164.0119 C.ar    1  UNL1       -0.0221
     25 C         139.2232  145.0928  163.3538 C.ar    1  UNL1       -0.0043
     26 C         139.4691  145.6695  161.9910 C.ar    1  UNL1       -0.0003
     27 C         140.7662  145.4022  161.2865 C.ar    1  UNL1       -0.0000
     28 C         141.8173  144.5584  161.9447 C.ar    1  UNL1       -0.0003
     29 C         141.5713  143.9817  163.3074 C.ar    1  UNL1       -0.0043
@<TRIPOS>BOND
     1    16    17   am
     2    17    18    2
     3    17    10    1
     4    10    11   ar
     5    11    12   ar
     6    12    13   ar
     7    13    14   ar
     8    14     9    1
     9     1     9    1
    10     1     2    1
    11     3     2    1
    12     3     4    1
    13     4     5    1
    14     6     5    1
    15     6     7    1
    16     6     8    1
    17     8    21    1
    18    21    22    1
    19    22    23    1
    20    23    24    1
    21    24    25   ar
    22    25    26   ar
    23    26    27   ar
    24    27    28   ar
    25    28    29   ar
    26    14    15   ar
    27    15    10   ar
    28     7     1    1
    29    29    24   ar
    30     8     3    1
    31    16    19    1
    32    16    20    1
@<TRIPOS>MOLECULE
*****
 29 32 0 0 0
SMALL
GASTEIGER

@<TRIPOS>ATOM
      1 C         140.5127  141.0029  167.2900 C.3     1  UNL1        0.1686
      2 C         140.8069  142.4720  167.3616 C.3     1  UNL1        0.0595
      3 C         140.5560  143.2260  168.6338 C.3     1  UNL1        0.0611
      4 C         140.1676  143.5534  170.0452 C.3     1  UNL1        0.0175
      5 C         139.6830  142.2924  170.6969 C.3     1  UNL1        0.0175
      6 C         139.7718  141.1855  169.6884 C.3     1  UNL1        0.0611
      7 C         139.9675  140.2878  168.4906 C.3     1  UNL1        0.0595
      8 N         140.3114  141.7626  168.4133 N.3     1  UNL1       -0.2750
      9 O         140.7636  140.2488  166.0177 O.3     1  UNL1       -0.4791
     10 C         144.2714  140.2548  164.1616 C.ar    1  UNL1        0.0561
     11 C         144.9640  139.1229  164.8608 C.ar    1  UNL1        0.0047
     12 C         144.2565  138.3663  165.9456 C.ar    1  UNL1        0.0033
     13 C         142.8564  138.7416  166.3313 C.ar    1  UNL1        0.0369
     14 C         142.1638  139.8735  165.6321 C.ar    1  UNL1        0.1385
     15 C         142.8712  140.6301  164.5472 C.ar    1  UNL1        0.0414
     16 N         146.1521  141.8834  163.4130 N.am    1  UNL1       -0.3253
     17 C         144.9789  141.0114  163.0767 C.2     1  UNL1        0.2428
     18 O         144.5131  140.8961  161.6554 O.2     1  UNL1       -0.2704
     19 H         146.6165  142.3800  162.7009 H       1  UNL1        0.1453
     20 H         146.4578  141.9592  164.3458 H       1  UNL1        0.1453
     21 C         140.5623  141.0086  167.1411 C.3     1  UNL1        0.0723
     22 C         139.5187  140.0741  166.6047 C.3     1  UNL1        0.0220
     23 C         138.5583  140.5463  165.5538 C.3     1  UNL1        0.0278
     24 C         138.4198  139.7858  164.2683 C.ar    1  UNL1       -0.0221
     25 C         137.8597  140.4634  163.0527 C.ar    1  UNL1       -0.0043
     26 C         137.7212  139.7031  161.7672 C.ar    1  UNL1       -0.0003
     27 C         138.1427  138.2651  161.6971 C.ar    1  UNL1       -0.0000
     28 C         138.7027  137.5876  162.9125 C.ar    1  UNL1       -0.0003
     29 C         138.8413  138.3480  164.1981 C.ar    1  UNL1       -0.0043
@<TRIPOS>BOND
     1    16    17   am
     2    17    18    2
     3    17    10    1
     4    10    11   ar
     5    11    12   ar
     6    12    13   ar
     7    13    14   ar
     8    14     9    1
     9     1     9    1
    10     1     2    1
    11     3     2    1
    12     3     4    1
    13     4     5    1
    14     6     5    1
    15     6     7    1
    16     6     8    1
    17     8    21    1
    18    21    22    1
    19    22    23    1
    20    23    24    1
    21    24    25   ar
    22    25    26   ar
    23    26    27   ar
    24    27    28   ar
    25    28    29   ar
    26    14    15   ar
    27    15    10   ar
    28     7     1    1
    29    29    24   ar
    30     8     3    1
    31    16    19    1
    32    16    20    1
@<TRIPOS>MOLECULE
*****
 29 32 0 0 0
SMALL
GASTEIGER

@<TRIPOS>ATOM
      1 C         140.1968  141.1957  166.8170 C.3     1  UNL1        0.1686
      2 C         140.5886  142.4306  167.5728 C.3     1  UNL1        0.0595
      3 C         140.3733  142.5024  169.0556 C.3     1  UNL1        0.0611
      4 C         139.9903  142.1428  170.4606 C.3     1  UNL1        0.0175
      5 C         139.4137  140.7582  170.4438 C.3     1  UNL1        0.0175
      6 C         139.4402  140.2620  169.0285 C.3     1  UNL1        0.0611
      7 C         139.5898  140.0324  167.5439 C.3     1  UNL1        0.0595
      8 N         140.0333  141.3400  168.1705 N.3     1  UNL1       -0.2750
      9 O         140.4121  141.1239  165.3342 O.3     1  UNL1       -0.4791
     10 C         139.3553  144.1638  163.0122 C.ar    1  UNL1        0.0561
     11 C         137.9868  143.7278  162.5799 C.ar    1  UNL1        0.0047
     12 C         137.4267  142.4239  163.0656 C.ar    1  UNL1        0.0033
     13 C         138.2351  141.5559  163.9837 C.ar    1  UNL1        0.0369
     14 C         139.6037  141.9919  164.4161 C.ar    1  UNL1        0.1385
     15 C         140.1638  143.2958  163.9304 C.ar    1  UNL1        0.0414
     16 N         141.2082  145.9836  163.0857 N.am    1  UNL1       -0.3253
     17 C         139.9154  145.4678  162.5265 C.2     1  UNL1        0.2428
     18 O         139.1827  146.2560  161.4815 O.2     1  UNL1       -0.2704
     19 H         141.5758  146.8394  162.7668 H       1  UNL1        0.1453
     20 H         141.6891  145.4662  163.7715 H       1  UNL1        0.1453
     21 C         140.2486  141.2683  166.6878 C.3     1  UNL1        0.0723
     22 C         141.0449  140.1416  166.0991 C.3     1  UNL1        0.0220
     23 C         142.5131  140.0313  166.3854 C.3     1  UNL1        0.0278
     24 C         143.5058  140.7017  165.4825 C.ar    1  UNL1       -0.0221
     25 C         143.6969  142.1880  165.5504 C.ar    1  UNL1       -0.0043
     26 C         144.6895  142.8585  164.6475 C.ar    1  UNL1       -0.0003
     27 C         145.4910  142.0427  163.6767 C.ar    1  UNL1       -0.0000
     28 C         145.2998  140.5565  163.6089 C.ar    1  UNL1       -0.0003
     29 C         144.3072  139.8860  164.5118 C.ar    1  UNL1       -0.0043
@<TRIPOS>BOND
     1    16    17   am
     2    17    18    2
     3    17    10    1
     4    10    11   ar
     5    11    12   ar
     6    12    13   ar
     7    13    14   ar
     8    14     9    1
     9     1     9    1
    10     1     2    1
    11     3     2    1
    12     3     4    1
    13     4     5    1
    14     6     5    1
    15     6     7    1
    16     6     8    1
    17     8    21    1
    18    21    22    1
    19    22    23    1
    20    23    24    1
    21    24    25   ar
    22    25    26   ar
    23    26    27   ar
    24    27    28   ar
    25    28    29   ar
    26    14    15   ar
    27    15    10   ar
    28     7     1    1
    29    29    24   ar
    30     8     3    1
    31    16    19    1
    32    16    20    1
@<TRIPOS>MOLECULE
*****
 29 32 0 0 0
SMALL
GASTEIGER

@<TRIPOS>ATOM
      1 C         142.2359  142.1231  165.1831 C.3     1  UNL1        0.1686
      2 C         142.3085  140.8826  164.3430 C.3     1  UNL1        0.0595
      3 C         143.5907  140.5159  163.6562 C.3     1  UNL1        0.0611
      4 C         145.0129  140.5443  163.1802 C.3     1  UNL1        0.0175
      5 C         145.6692  141.7650  163.7538 C.3     1  UNL1        0.0175
      6 C         144.6527  142.4911  164.5843 C.3     1  UNL1        0.0611
      7 C         143.4454  142.9969  165.3364 C.3     1  UNL1        0.0595
      8 N         143.3680  141.7190  164.5239 N.3     1  UNL1       -0.2750
      9 O         140.9537  142.4898  165.8699 O.3     1  UNL1       -0.4791
     10 C         140.7139  141.6680  169.7450 C.ar    1  UNL1        0.0561
     11 C         139.8096  140.4715  169.7256 C.ar    1  UNL1        0.0047
     12 C         139.2866  139.9477  168.4209 C.ar    1  UNL1        0.0033
     13 C         139.6680  140.6205  167.1357 C.ar    1  UNL1        0.0369
     14 C         140.5723  141.8170  167.1552 C.ar    1  UNL1        0.1385
     15 C         141.0953  142.3408  168.4598 C.ar    1  UNL1        0.0414
     16 N         142.6361  142.7250  171.1371 N.am    1  UNL1       -0.3253
     17 C         141.2368  142.1918  171.0497 C.2     1  UNL1        0.2428
     18 O         140.3604  142.1824  172.2671 O.2     1  UNL1       -0.2704
     19 H         142.9794  143.0687  171.9934 H       1  UNL1        0.1453
     20 H         143.2114  142.7312  170.3382 H       1  UNL1        0.1453
     21 C         142.0859  142.0857  165.2107 C.3     1  UNL1        0.0723
     22 C         141.5202  143.4663  165.0556 C.3     1  UNL1        0.0220
     23 C         140.2968  143.6854  164.2159 C.3     1  UNL1        0.0278
     24 C         140.4270  144.2597  162.8363 C.ar    1  UNL1       -0.0221
     25 C         141.2640  143.5581  161.8079 C.ar    1  UNL1       -0.0043
     26 C         141.3943  144.1323  160.4283 C.ar    1  UNL1       -0.0003
     27 C         140.6876  145.4080  160.0770 C.ar    1  UNL1       -0.0000
     28 C         139.8507  146.1094  161.1053 C.ar    1  UNL1       -0.0003
     29 C         139.7204  145.5353  162.4850 C.ar    1  UNL1       -0.0043
@<TRIPOS>BOND
     1    16    17   am
     2    17    18    2
     3    17    10    1
     4    10    11   ar
     5    11    12   ar
     6    12    13   ar
     7    13    14   ar
     8    14     9    1
     9     1     9    1
    10     1     2    1
    11     3     2    1
    12     3     4    1
    13     4     5    1
    14     6     5    1
    15     6     7    1
    16     6     8    1
    17     8    21    1
    18    21    22    1
    19    22    23    1
    20    23    24    1
    21    24    25   ar
    22    25    26   ar
    23    26    27   ar
    24    27    28   ar
    25    28    29   ar
    26    14    15   ar
    27    15    10   ar
    28     7     1    1
    29    29    24   ar
    30     8     3    1
    31    16    19    1
    32    16    20    1
@<TRIPOS>MOLECULE
*****
 29 32 0 0 0
SMALL
GASTEIGER

@<TRIPOS>ATOM
      1 C         140.7879  142.0489  167.3259 C.3     1  UNL1        0.1686
      2 C         142.1590  141.4407  167.3137 C.3     1  UNL1        0.0595
      3 C         143.1115  141.7158  168.4393 C.3     1  UNL1        0.0611
      4 C         143.6982  142.2435  169.7150 C.3     1  UNL1        0.0175
      5 C         142.6649  143.1046  170.3789 C.3     1  UNL1        0.0175
      6 C         141.4397  143.1091  169.5136 C.3     1  UNL1        0.0611
      7 C         140.3694  142.9322  168.4637 C.3     1  UNL1        0.0595
      8 N         141.7157  142.2507  168.3148 N.3     1  UNL1       -0.2750
      9 O         139.8353  141.7738  166.2003 O.3     1  UNL1       -0.4791
     10 C         139.2653  138.3007  164.3666 C.ar    1  UNL1        0.0561
     11 C         138.4583  137.5660  165.3956 C.ar    1  UNL1        0.0047
     12 C         138.1104  138.2338  166.6928 C.ar    1  UNL1        0.0033
     13 C         138.5694  139.6364  166.9611 C.ar    1  UNL1        0.0369
     14 C         139.3763  140.3712  165.9320 C.ar    1  UNL1        0.1385
     15 C         139.7243  139.7034  164.6348 C.ar    1  UNL1        0.0414
     16 N         138.6398  137.6574  161.9283 N.am    1  UNL1       -0.3253
     17 C         139.6132  137.6329  163.0693 C.2     1  UNL1        0.2428
     18 O         140.9347  136.9404  162.9130 O.2     1  UNL1       -0.2704
     19 H         138.8682  137.2191  161.0769 H       1  UNL1        0.1453
     20 H         137.7725  138.1119  162.0309 H       1  UNL1        0.1453
     21 C         140.7632  141.9756  167.1892 C.3     1  UNL1        0.0723
     22 C         140.1562  143.1147  166.4250 C.3     1  UNL1        0.0220
     23 C         140.2606  143.1544  164.9292 C.3     1  UNL1        0.0278
     24 C         141.5772  143.4566  164.2770 C.ar    1  UNL1       -0.0221
     25 C         142.0065  144.8802  164.0787 C.ar    1  UNL1       -0.0043
     26 C         143.3231  145.1825  163.4265 C.ar    1  UNL1       -0.0003
     27 C         144.2102  144.0613  162.9726 C.ar    1  UNL1       -0.0000
     28 C         143.7808  142.6378  163.1709 C.ar    1  UNL1       -0.0003
     29 C         142.4643  142.3355  163.8231 C.ar    1  UNL1       -0.0043
@<TRIPOS>BOND
     1    16    17   am
     2    17    18    2
     3    17    10    1
     4    10    11   ar
     5    11    12   ar
     6    12    13   ar
     7    13    14   ar
     8    14     9    1
     9     1     9    1
    10     1     2    1
    11     3     2    1
    12     3     4    1
    13     4     5    1
    14     6     5    1
    15     6     7    1
    16     6     8    1
    17     8    21    1
    18    21    22    1
    19    22    23    1
    20    23    24    1
    21    24    25   ar
    22    25    26   ar
    23    26    27   ar
    24    27    28   ar
    25    28    29   ar
    26    14    15   ar
    27    15    10   ar
    28     7     1    1
    29    29    24   ar
    30     8     3    1
    31    16    19    1
    32    16    20    1
@<TRIPOS>MOLECULE
*****
 29 32 0 0 0
SMALL
GASTEIGER

@<TRIPOS>ATOM
      1 C         142.6043  142.0600  165.4634 C.3     1  UNL1        0.1686
      2 C         141.4241  142.6696  164.7667 C.3     1  UNL1        0.0595
      3 C         141.5888  143.9376  163.9824 C.3     1  UNL1        0.0611
      4 C         142.1958  145.1522  163.3452 C.3     1  UNL1        0.0175
      5 C         143.6537  145.1804  163.6969 C.3     1  UNL1        0.0175
      6 C         143.9477  143.9832  164.5515 C.3     1  UNL1        0.0611
      7 C         143.9493  142.7185  165.3758 C.3     1  UNL1        0.0595
      8 N         142.6714  143.2151  164.7279 N.3     1  UNL1       -0.2750
      9 O         142.4397  140.7920  166.2477 O.3     1  UNL1       -0.4791
     10 C         140.9703  141.4112  169.8818 C.ar    1  UNL1        0.0561
     11 C         139.6638  140.6803  169.7877 C.ar    1  UNL1        0.0047
     12 C         139.2827  139.9867  168.5135 C.ar    1  UNL1        0.0033
     13 C         140.2079  140.0239  167.3335 C.ar    1  UNL1        0.0369
     14 C         141.5144  140.7548  167.4277 C.ar    1  UNL1        0.1385
     15 C         141.8956  141.4484  168.7018 C.ar    1  UNL1        0.0414
     16 N         142.6851  142.7818  171.2715 N.am    1  UNL1       -0.3253
     17 C         141.3515  142.1048  171.1560 C.2     1  UNL1        0.2428
     18 O         140.3991  142.1215  172.3148 O.2     1  UNL1       -0.2704
     19 H         142.9353  143.2371  172.1078 H       1  UNL1        0.1453
     20 H         143.3102  142.7709  170.5109 H       1  UNL1        0.1453
     21 C         142.5068  141.9471  165.5122 C.3     1  UNL1        0.0723
     22 C         143.4656  140.8111  165.3114 C.3     1  UNL1        0.0220
     23 C         143.0057  139.5516  164.6391 C.3     1  UNL1        0.0278
     24 C         143.2290  139.3620  163.1680 C.ar    1  UNL1       -0.0221
     25 C         143.8601  140.4557  162.3582 C.ar    1  UNL1       -0.0043
     26 C         144.0835  140.2662  160.8871 C.ar    1  UNL1       -0.0003
     27 C         143.6757  138.9830  160.2257 C.ar    1  UNL1       -0.0000
     28 C         143.0446  137.8894  161.0355 C.ar    1  UNL1       -0.0003
     29 C         142.8212  138.0789  162.5066 C.ar    1  UNL1       -0.0043
@<TRIPOS>BOND
     1    16    17   am
     2    17    18    2
     3    17    10    1
     4    10    11   ar
     5    11    12   ar
     6    12    13   ar
     7    13    14   ar
     8    14     9    1
     9     1     9    1
    10     1     2    1
    11     3     2    1
    12     3     4    1
    13     4     5    1
    14     6     5    1
    15     6     7    1
    16     6     8    1
    17     8    21    1
    18    21    22    1
    19    22    23    1
    20    23    24    1
    21    24    25   ar
    22    25    26   ar
    23    26    27   ar
    24    27    28   ar
    25    28    29   ar
    26    14    15   ar
    27    15    10   ar
    28     7     1    1
    29    29    24   ar
    30     8     3    1
    31    16    19    1
    32    16    20    1
@<TRIPOS>MOLECULE
*****
 29 32 0 0 0
SMALL
GASTEIGER

@<TRIPOS>ATOM
      1 C         142.7403  142.1782  165.4612 C.3     1  UNL1        0.1686
      2 C         141.5120  142.9193  165.0230 C.3     1  UNL1        0.0595
      3 C         141.6433  144.1912  164.2388 C.3     1  UNL1        0.0611
      4 C         142.2299  145.3633  163.5094 C.3     1  UNL1        0.0175
      5 C         143.7240  145.2419  163.5626 C.3     1  UNL1        0.0175
      6 C         144.0609  143.9947  164.3249 C.3     1  UNL1        0.0611
      7 C         144.0999  142.7090  165.1151 C.3     1  UNL1        0.0595
      8 N         142.7749  143.3453  164.7428 N.3     1  UNL1       -0.2750
      9 O         142.6090  140.9062  166.2455 O.3     1  UNL1       -0.4791
     10 C         141.0358  141.4480  169.8484 C.ar    1  UNL1        0.0561
     11 C         139.7505  140.6864  169.7139 C.ar    1  UNL1        0.0047
     12 C         139.4181  139.9981  168.4233 C.ar    1  UNL1        0.0033
     13 C         140.3709  140.0714  167.2672 C.ar    1  UNL1        0.0369
     14 C         141.6562  140.8329  167.4016 C.ar    1  UNL1        0.1385
     15 C         141.9886  141.5213  168.6922 C.ar    1  UNL1        0.0414
     16 N         142.6792  142.8486  171.2932 N.am    1  UNL1       -0.3253
     17 C         141.3681  142.1363  171.1390 C.2     1  UNL1        0.2428
     18 O         140.3894  142.1124  172.2755 O.2     1  UNL1       -0.2704
     19 H         142.8974  143.3003  172.1403 H       1  UNL1        0.1453
     20 H         143.3216  142.8643  170.5473 H       1  UNL1        0.1453
     21 C         142.6436  142.0734  165.5270 C.3     1  UNL1        0.0723
     22 C         143.3420  140.8300  165.0620 C.3     1  UNL1        0.0220
     23 C         142.8398  140.0947  163.8550 C.3     1  UNL1        0.0278
     24 C         141.5850  139.2775  163.9429 C.ar    1  UNL1       -0.0221
     25 C         141.6229  137.9086  164.5551 C.ar    1  UNL1       -0.0043
     26 C         140.3681  137.0914  164.6431 C.ar    1  UNL1       -0.0003
     27 C         139.0754  137.6431  164.1188 C.ar    1  UNL1       -0.0000
     28 C         139.0376  139.0119  163.5066 C.ar    1  UNL1       -0.0003
     29 C         140.2924  139.8291  163.4186 C.ar    1  UNL1       -0.0043
@<TRIPOS>BOND
     1    16    17   am
     2    17    18    2
     3    17    10    1
     4    10    11   ar
     5    11    12   ar
     6    12    13   ar
     7    13    14   ar
     8    14     9    1
     9     1     9    1
    10     1     2    1
    11     3     2    1
    12     3     4    1
    13     4     5    1
    14     6     5    1
    15     6     7    1
    16     6     8    1
    17     8    21    1
    18    21    22    1
    19    22    23    1
    20    23    24    1
    21    24    25   ar
    22    25    26   ar
    23    26    27   ar
    24    27    28   ar
    25    28    29   ar
    26    14    15   ar
    27    15    10   ar
    28     7     1    1
    29    29    24   ar
    30     8     3    1
    31    16    19    1
    32    16    20    1
@<TRIPOS>MOLECULE
*****
 29 32 0 0 0
SMALL
GASTEIGER

@<TRIPOS>ATOM
      1 C         141.1633  142.3034  167.3189 C.3     1  UNL1        0.1686
      2 C         142.6218  141.9533  167.3078 C.3     1  UNL1        0.0595
      3 C         143.4565  142.1784  168.5336 C.3     1  UNL1        0.0611
      4 C         143.8788  142.5575  169.9221 C.3     1  UNL1        0.0175
      5 C         142.6765  143.0917  170.6426 C.3     1  UNL1        0.0175
      6 C         141.5112  143.0427  169.6994 C.3     1  UNL1        0.0611
      7 C         140.5394  142.8785  168.5558 C.3     1  UNL1        0.0595
      8 N         141.9932  142.4783  168.3960 N.3     1  UNL1       -0.2750
      9 O         140.3286  142.0783  166.0930 O.3     1  UNL1       -0.4791
     10 C         141.4215  144.3877  163.0563 C.ar    1  UNL1        0.0561
     11 C         140.1816  145.2100  162.8649 C.ar    1  UNL1        0.0047
     12 C         138.9907  144.9883  163.7496 C.ar    1  UNL1        0.0033
     13 C         139.0397  143.9444  164.8255 C.ar    1  UNL1        0.0369
     14 C         140.2796  143.1222  165.0169 C.ar    1  UNL1        0.1385
     15 C         141.4704  143.3438  164.1323 C.ar    1  UNL1        0.0414
     16 N         143.8719  145.1915  162.7413 N.am    1  UNL1       -0.3253
     17 C         142.6123  144.6094  162.1716 C.2     1  UNL1        0.2428
     18 O         142.5437  144.2489  160.7171 O.2     1  UNL1       -0.2704
     19 H         144.6535  145.3370  162.1606 H       1  UNL1        0.1453
     20 H         143.9170  145.4281  163.6959 H       1  UNL1        0.1453
     21 C         141.1586  142.2532  167.1701 C.3     1  UNL1        0.0723
     22 C         139.9454  141.3737  167.2399 C.3     1  UNL1        0.0220
     23 C         140.1025  139.8839  167.3144 C.3     1  UNL1        0.0278
     24 C         140.1954  139.0755  166.0543 C.ar    1  UNL1       -0.0221
     25 C         138.9453  138.6200  165.3616 C.ar    1  UNL1       -0.0043
     26 C         139.0382  137.8116  164.1015 C.ar    1  UNL1       -0.0003
     27 C         140.3812  137.4587  163.5341 C.ar    1  UNL1       -0.0000
     28 C         141.6312  137.9141  164.2268 C.ar    1  UNL1       -0.0003
     29 C         141.5384  138.7225  165.4869 C.ar    1  UNL1       -0.0043
@<TRIPOS>BOND
     1    16    17   am
     2    17    18    2
     3    17    10    1
     4    10    11   ar
     5    11    12   ar
     6    12    13   ar
     7    13    14   ar
     8    14     9    1
     9     1     9    1
    10     1     2    1
    11     3     2    1
    12     3     4    1
    13     4     5    1
    14     6     5    1
    15     6     7    1
    16     6     8    1
    17     8    21    1
    18    21    22    1
    19    22    23    1
    20    23    24    1
    21    24    25   ar
    22    25    26   ar
    23    26    27   ar
    24    27    28   ar
    25    28    29   ar
    26    14    15   ar
    27    15    10   ar
    28     7     1    1
    29    29    24   ar
    30     8     3    1
    31    16    19    1
    32    16    20    1
@<TRIPOS>MOLECULE
*****
 29 32 0 0 0
SMALL
GASTEIGER

@<TRIPOS>ATOM
      1 C         139.2760  141.0563  164.4515 C.3     1  UNL1        0.1686
      2 C         140.3432  141.7286  163.6398 C.3     1  UNL1        0.0595
      3 C         140.0512  143.0246  162.9435 C.3     1  UNL1        0.0611
      4 C         139.3407  144.2486  162.4466 C.3     1  UNL1        0.0175
      5 C         137.9397  144.2206  162.9819 C.3     1  UNL1        0.0175
      6 C         137.7844  142.9793  163.8096 C.3     1  UNL1        0.0611
      7 C         137.9167  141.6801  164.5669 C.3     1  UNL1        0.0595
      8 N         139.0895  142.2401  163.7858 N.3     1  UNL1       -0.2750
      9 O         139.5679  139.7601  165.1479 O.3     1  UNL1       -0.4791
     10 C         140.4871  140.0486  168.9978 C.ar    1  UNL1        0.0561
     11 C         141.9553  139.7435  168.9623 C.ar    1  UNL1        0.0047
     12 C         142.6277  139.4439  167.6554 C.ar    1  UNL1        0.0033
     13 C         141.8319  139.4494  166.3840 C.ar    1  UNL1        0.0369
     14 C         140.3637  139.7546  166.4194 C.ar    1  UNL1        0.1385
     15 C         139.6913  140.0541  167.7263 C.ar    1  UNL1        0.0414
     16 N         139.7512  139.2977  171.3737 N.am    1  UNL1       -0.3253
     17 C         139.8148  140.3482  170.3048 C.2     1  UNL1        0.2428
     18 O         139.2059  141.6983  170.5429 O.2     1  UNL1       -0.2704
     19 H         139.3099  139.4943  172.2315 H       1  UNL1        0.1453
     20 H         140.1508  138.4116  171.2174 H       1  UNL1        0.1453
     21 C         139.3815  140.9441  164.4822 C.3     1  UNL1        0.0723
     22 C         138.4328  139.7899  164.3475 C.3     1  UNL1        0.0220
     23 C         138.7352  138.6789  163.3863 C.3     1  UNL1        0.0278
     24 C         138.8019  138.9581  161.9140 C.ar    1  UNL1       -0.0221
     25 C         139.8848  138.3382  161.0814 C.ar    1  UNL1       -0.0043
     26 C         139.9515  138.6174  159.6091 C.ar    1  UNL1       -0.0003
     27 C         138.9353  139.5165  158.9695 C.ar    1  UNL1       -0.0000
     28 C         137.8525  140.1363  159.8020 C.ar    1  UNL1       -0.0003
     29 C         137.7857  139.8571  161.2743 C.ar    1  UNL1       -0.0043
@<TRIPOS>BOND
     1    16    17   am
     2    17    18    2
     3    17    10    1
     4    10    11   ar
     5    11    12   ar
     6    12    13   ar
     7    13    14   ar
     8    14     9    1
     9     1     9    1
    10     1     2    1
    11     3     2    1
    12     3     4    1
    13     4     5    1
    14     6     5    1
    15     6     7    1
    16     6     8    1
    17     8    21    1
    18    21    22    1
    19    22    23    1
    20    23    24    1
    21    24    25   ar
    22    25    26   ar
    23    26    27   ar
    24    27    28   ar
    25    28    29   ar
    26    14    15   ar
    27    15    10   ar
    28     7     1    1
    29    29    24   ar
    30     8     3    1
    31    16    19    1
    32    16    20    1
