@<TRIPOS>MOLECULE
*****
 35 40 0 0 0
SMALL
GASTEIGER

@<TRIPOS>ATOM
      1 N         139.9078  140.3823  166.9639 N.ar    1  UNL1       -0.2815
      2 C         139.3560  139.9045  168.2743 C.ar    1  UNL1        0.3316
      3 O         138.1026  139.1023  168.4633 O.2     1  UNL1       -0.2463
      4 N         140.2777  140.3696  169.3625 N.ar    1  UNL1       -0.2765
      5 C         140.1078  140.1142  170.8309 C.3     1  UNL1        0.1352
      6 C         141.3990  141.1349  168.7247 C.ar    1  UNL1        0.0989
      7 C         142.5987  141.8257  169.3022 C.ar    1  UNL1        0.1175
      8 N         143.5698  142.5242  168.3973 N.ar    1  UNL1       -0.2422
      9 C         143.3412  142.5321  166.9147 C.ar    1  UNL1        0.0828
     10 C         144.3123  143.2307  166.0098 C.ar    1  UNL1        0.0191
     11 C         144.0836  143.2386  164.5274 C.ar    1  UNL1        0.0016
     12 C         142.8839  142.5478  163.9499 C.ar    1  UNL1        0.0016
     13 C         141.9128  141.8492  164.8548 C.ar    1  UNL1        0.0030
     14 C         142.1415  141.8414  166.3372 C.ar    1  UNL1        0.0350
     15 C         141.1704  141.1428  167.2422 C.ar    1  UNL1        0.0826
     16 C         142.6553  142.5557  162.4674 C.ar    1  UNL1        0.0194
     17 C         141.8836  141.4433  161.8216 C.ar    1  UNL1        0.0063
     18 C         141.6550  141.4512  160.3391 C.ar    1  UNL1        0.0577
     19 C         142.1981  142.5715  159.5025 C.ar    1  UNL1        0.2249
     20 N         142.9698  143.6839  160.1483 N.ar    1  UNL1       -0.2101
     21 C         143.1984  143.6760  161.6308 C.ar    1  UNL1        0.1020
     22 O         141.9695  142.5794  158.0200 O.3     1  UNL1       -0.4602
     23 C         141.2427  143.7245  157.3794 C.3     1  UNL1        0.2085
     24 C         140.0115  144.2871  158.0258 C.3     1  UNL1        0.0647
     25 C         140.1230  145.4506  158.9658 C.3     1  UNL1        0.0759
     26 N         139.8607  145.2594  160.4303 N.3     1  UNL1       -0.2725
     27 C         139.9587  146.1299  161.6479 C.3     1  UNL1        0.0735
     28 C         139.4898  144.9889  162.5014 C.3     1  UNL1        0.0346
     29 C         139.3918  144.1185  161.2838 C.3     1  UNL1        0.0735
     30 C         138.4478  139.8020  163.7011 C.3     1  UNL1        0.1191
     31 C         139.4739  139.1037  164.5434 C.3     1  UNL1        0.0524
     32 C         139.3030  140.1419  165.6124 C.3     1  UNL1        0.0947
     33 C         138.2769  140.8404  164.7701 C.3     1  UNL1        0.0524
     34 C         137.9840  140.5939  161.2705 C.3     1  UNL1        0.1740
     35 O         137.8430  139.5616  162.3496 O.3     1  UNL1       -0.3534
@<TRIPOS>BOND
     1    34    35    1
     2    30    35    1
     3    30    31    1
     4    31    32    1
     5    32     1    1
     6     1     2   ar
     7     2     3    2
     8     2     4   ar
     9     4     5    1
    10     4     6   ar
    11     6     7   ar
    12     7     8   ar
    13     8     9   ar
    14     9    10   ar
    15    10    11   ar
    16    11    12   ar
    17    12    16    1
    18    16    17   ar
    19    17    18   ar
    20    18    19   ar
    21    19    22    1
    22    22    23    1
    23    23    24    1
    24    24    25    1
    25    25    26    1
    26    26    27    1
    27    27    28    1
    28    28    29    1
    29    19    20   ar
    30    20    21   ar
    31    12    13   ar
    32    13    14   ar
    33    14    15   ar
    34    32    33    1
    35    33    30    1
    36    15     1   ar
    37    15     6   ar
    38    14     9   ar
    39    21    16   ar
    40    29    26    1
@<TRIPOS>MOLECULE
*****
 35 40 0 0 0
SMALL
GASTEIGER

@<TRIPOS>ATOM
      1 N         139.9569  140.1803  166.7812 N.ar    1  UNL1       -0.2815
      2 C         139.3967  139.8891  168.1419 C.ar    1  UNL1        0.3316
      3 O         138.1684  139.0795  168.4350 O.2     1  UNL1       -0.2463
      4 N         140.2804  140.5498  169.1581 N.ar    1  UNL1       -0.2765
      5 C         140.0910  140.5168  170.6458 C.3     1  UNL1        0.1352
      6 C         141.3867  141.2492  168.4254 C.ar    1  UNL1        0.0989
      7 C         142.5504  142.0646  168.9061 C.ar    1  UNL1        0.1175
      8 N         143.5141  142.6516  167.9178 N.ar    1  UNL1       -0.2422
      9 C         143.3141  142.4232  166.4488 C.ar    1  UNL1        0.0828
     10 C         144.2778  143.0102  165.4606 C.ar    1  UNL1        0.0191
     11 C         144.0778  142.7818  163.9916 C.ar    1  UNL1        0.0016
     12 C         142.9142  141.9664  163.5110 C.ar    1  UNL1        0.0016
     13 C         141.9505  141.3795  164.4992 C.ar    1  UNL1        0.0030
     14 C         142.1505  141.6078  165.9681 C.ar    1  UNL1        0.0350
     15 C         141.1867  141.0209  166.9565 C.ar    1  UNL1        0.0826
     16 C         142.7142  141.7381  162.0419 C.ar    1  UNL1        0.0194
     17 C         143.9013  141.5648  161.1415 C.ar    1  UNL1        0.0063
     18 C         143.7013  141.3364  159.6724 C.ar    1  UNL1        0.0577
     19 C         142.3143  141.2813  159.1040 C.ar    1  UNL1        0.2249
     20 N         141.1272  141.4546  160.0045 N.ar    1  UNL1       -0.2101
     21 C         141.3272  141.6829  161.4735 C.ar    1  UNL1        0.1020
     22 O         142.1143  141.0530  157.6350 O.3     1  UNL1       -0.4602
     23 C         142.1638  139.6608  157.0789 C.3     1  UNL1        0.2085
     24 C         141.6981  138.5034  157.9119 C.3     1  UNL1        0.0647
     25 C         142.6881  137.7057  158.7078 C.3     1  UNL1        0.0759
     26 N         142.7427  137.8518  160.1996 N.3     1  UNL1       -0.2725
     27 C         143.8391  137.8844  161.2227 C.3     1  UNL1        0.0735
     28 C         142.8200  138.0583  162.3095 C.3     1  UNL1        0.0346
     29 C         141.7235  138.0257  161.2864 C.3     1  UNL1        0.0735
     30 C         138.5815  139.0518  163.6270 C.3     1  UNL1        0.1191
     31 C         138.3270  140.2147  164.5398 C.3     1  UNL1        0.0524
     32 C         139.3871  139.7129  165.4747 C.3     1  UNL1        0.0947
     33 C         139.6417  138.5500  164.5620 C.3     1  UNL1        0.0524
     34 C         138.2163  139.4002  161.0785 C.3     1  UNL1        0.1740
     35 O         138.0118  138.5844  162.3205 O.3     1  UNL1       -0.3534
@<TRIPOS>BOND
     1    34    35    1
     2    30    35    1
     3    30    31    1
     4    31    32    1
     5    32     1    1
     6     1     2   ar
     7     2     3    2
     8     2     4   ar
     9     4     5    1
    10     4     6   ar
    11     6     7   ar
    12     7     8   ar
    13     8     9   ar
    14     9    10   ar
    15    10    11   ar
    16    11    12   ar
    17    12    16    1
    18    16    17   ar
    19    17    18   ar
    20    18    19   ar
    21    19    22    1
    22    22    23    1
    23    23    24    1
    24    24    25    1
    25    25    26    1
    26    26    27    1
    27    27    28    1
    28    28    29    1
    29    19    20   ar
    30    20    21   ar
    31    12    13   ar
    32    13    14   ar
    33    14    15   ar
    34    32    33    1
    35    33    30    1
    36    15     1   ar
    37    15     6   ar
    38    14     9   ar
    39    21    16   ar
    40    29    26    1
@<TRIPOS>MOLECULE
*****
 35 40 0 0 0
SMALL
GASTEIGER

@<TRIPOS>ATOM
      1 N         142.3854  141.3084  167.1056 N.ar    1  UNL1       -0.2815
      2 C         142.5180  141.9818  168.4394 C.ar    1  UNL1        0.3316
      3 O         143.6403  142.8815  168.8651 O.2     1  UNL1       -0.2463
      4 N         141.3314  141.5976  169.2726 N.ar    1  UNL1       -0.2765
      5 C         141.0586  142.0455  170.6780 C.3     1  UNL1        0.1352
      6 C         140.4654  140.6867  168.4538 C.ar    1  UNL1        0.0989
      7 C         139.1679  139.9969  168.7548 C.ar    1  UNL1        0.1175
      8 N         138.5217  139.1285  167.7164 N.ar    1  UNL1       -0.2422
      9 C         139.1731  138.9498  166.3770 C.ar    1  UNL1        0.0828
     10 C         138.5269  138.0813  165.3387 C.ar    1  UNL1        0.0191
     11 C         139.1783  137.9027  163.9994 C.ar    1  UNL1        0.0016
     12 C         140.4759  138.5924  163.6985 C.ar    1  UNL1        0.0016
     13 C         141.1220  139.4609  164.7368 C.ar    1  UNL1        0.0030
     14 C         140.4707  139.6396  166.0761 C.ar    1  UNL1        0.0350
     15 C         141.1168  140.5081  167.1146 C.ar    1  UNL1        0.0826
     16 C         141.1273  138.4137  162.3591 C.ar    1  UNL1        0.0194
     17 C         142.5747  138.0295  162.2744 C.ar    1  UNL1        0.0063
     18 C         143.2261  137.8508  160.9350 C.ar    1  UNL1        0.0577
     19 C         142.4300  138.0563  159.6804 C.ar    1  UNL1        0.2249
     20 N         140.9825  138.4406  159.7652 N.ar    1  UNL1       -0.2101
     21 C         140.3311  138.6193  161.1046 C.ar    1  UNL1        0.1020
     22 O         143.0813  137.8777  158.3411 O.3     1  UNL1       -0.4602
     23 C         142.4306  137.0163  157.2997 C.3     1  UNL1        0.2085
     24 C         143.2365  135.9812  156.5721 C.3     1  UNL1        0.0647
     25 C         143.2893  134.5734  157.0871 C.3     1  UNL1        0.0759
     26 N         142.5619  133.4812  156.3604 N.3     1  UNL1       -0.2725
     27 C         141.4753  133.4355  155.3274 C.3     1  UNL1        0.0735
     28 C         141.5331  131.9366  155.3328 C.3     1  UNL1        0.0346
     29 C         142.6196  131.9823  156.3658 C.3     1  UNL1        0.0735
     30 C         144.7182  141.5692  164.3480 C.3     1  UNL1        0.1191
     31 C         143.9778  142.5507  165.2075 C.3     1  UNL1        0.0524
     32 C         143.3516  141.4165  165.9634 C.3     1  UNL1        0.0947
     33 C         144.0919  140.4349  165.1039 C.3     1  UNL1        0.0524
     34 C         145.1889  142.0323  161.8353 C.3     1  UNL1        0.1740
     35 O         145.6845  141.6773  163.2058 O.3     1  UNL1       -0.3534
@<TRIPOS>BOND
     1    34    35    1
     2    30    35    1
     3    30    31    1
     4    31    32    1
     5    32     1    1
     6     1     2   ar
     7     2     3    2
     8     2     4   ar
     9     4     5    1
    10     4     6   ar
    11     6     7   ar
    12     7     8   ar
    13     8     9   ar
    14     9    10   ar
    15    10    11   ar
    16    11    12   ar
    17    12    16    1
    18    16    17   ar
    19    17    18   ar
    20    18    19   ar
    21    19    22    1
    22    22    23    1
    23    23    24    1
    24    24    25    1
    25    25    26    1
    26    26    27    1
    27    27    28    1
    28    28    29    1
    29    19    20   ar
    30    20    21   ar
    31    12    13   ar
    32    13    14   ar
    33    14    15   ar
    34    32    33    1
    35    33    30    1
    36    15     1   ar
    37    15     6   ar
    38    14     9   ar
    39    21    16   ar
    40    29    26    1
@<TRIPOS>MOLECULE
*****
 35 40 0 0 0
SMALL
GASTEIGER

@<TRIPOS>ATOM
      1 N         142.3994  141.5341  167.6135 N.ar    1  UNL1       -0.2815
      2 C         142.9383  142.1183  168.8857 C.ar    1  UNL1        0.3316
      3 O         144.2106  142.9003  169.0272 O.2     1  UNL1       -0.2463
      4 N         141.9817  141.7833  169.9913 N.ar    1  UNL1       -0.2765
      5 C         142.1292  142.1715  171.4328 C.3     1  UNL1        0.1352
      6 C         140.8515  140.9920  169.4026 C.ar    1  UNL1        0.0989
      7 C         139.6207  140.3918  170.0148 C.ar    1  UNL1        0.1175
      8 N         138.6480  139.6376  169.1574 N.ar    1  UNL1       -0.2422
      9 C         138.9062  139.4835  167.6878 C.ar    1  UNL1        0.0828
     10 C         137.9336  138.7293  166.8305 C.ar    1  UNL1        0.0191
     11 C         138.1918  138.5753  165.3610 C.ar    1  UNL1        0.0016
     12 C         139.4227  139.1754  164.7488 C.ar    1  UNL1        0.0016
     13 C         140.3953  139.9297  165.6061 C.ar    1  UNL1        0.0030
     14 C         140.1371  140.0837  167.0757 C.ar    1  UNL1        0.0350
     15 C         141.1098  140.8380  167.9331 C.ar    1  UNL1        0.0826
     16 C         139.6809  139.0214  163.2792 C.ar    1  UNL1        0.0194
     17 C         140.8430  139.7256  162.6440 C.ar    1  UNL1        0.0063
     18 C         141.1012  139.5716  161.1744 C.ar    1  UNL1        0.0577
     19 C         140.1973  138.7132  160.3400 C.ar    1  UNL1        0.2249
     20 N         139.0351  138.0089  160.9753 N.ar    1  UNL1       -0.2101
     21 C         138.7770  138.1630  162.4449 C.ar    1  UNL1        0.1020
     22 O         140.4554  138.5591  158.8705 O.3     1  UNL1       -0.4602
     23 C         139.7290  139.4272  157.8864 C.3     1  UNL1        0.2085
     24 C         138.6017  140.3028  158.3477 C.3     1  UNL1        0.0647
     25 C         138.8667  141.7301  158.7250 C.3     1  UNL1        0.0759
     26 N         138.7695  142.1571  160.1596 N.3     1  UNL1       -0.2725
     27 C         139.4280  143.2112  160.9995 C.3     1  UNL1        0.0735
     28 C         138.6322  142.7609  162.1886 C.3     1  UNL1        0.0346
     29 C         137.9737  141.7069  161.3487 C.3     1  UNL1        0.0735
     30 C         143.9414  141.7638  164.3450 C.3     1  UNL1        0.1191
     31 C         143.6484  140.6478  165.3035 C.3     1  UNL1        0.0524
     32 C         143.0381  141.6292  166.2597 C.3     1  UNL1        0.0947
     33 C         143.3310  142.7453  165.3012 C.3     1  UNL1        0.0524
     34 C         144.5216  143.1460  162.2230 C.3     1  UNL1        0.1740
     35 O         144.5801  141.8589  162.9911 O.3     1  UNL1       -0.3534
@<TRIPOS>BOND
     1    34    35    1
     2    30    35    1
     3    30    31    1
     4    31    32    1
     5    32     1    1
     6     1     2   ar
     7     2     3    2
     8     2     4   ar
     9     4     5    1
    10     4     6   ar
    11     6     7   ar
    12     7     8   ar
    13     8     9   ar
    14     9    10   ar
    15    10    11   ar
    16    11    12   ar
    17    12    16    1
    18    16    17   ar
    19    17    18   ar
    20    18    19   ar
    21    19    22    1
    22    22    23    1
    23    23    24    1
    24    24    25    1
    25    25    26    1
    26    26    27    1
    27    27    28    1
    28    28    29    1
    29    19    20   ar
    30    20    21   ar
    31    12    13   ar
    32    13    14   ar
    33    14    15   ar
    34    32    33    1
    35    33    30    1
    36    15     1   ar
    37    15     6   ar
    38    14     9   ar
    39    21    16   ar
    40    29    26    1
@<TRIPOS>MOLECULE
*****
 35 40 0 0 0
SMALL
GASTEIGER

@<TRIPOS>ATOM
      1 N         142.3723  141.5940  167.5266 N.ar    1  UNL1       -0.2815
      2 C         142.9813  142.1113  168.7961 C.ar    1  UNL1        0.3316
      3 O         144.2614  142.8852  168.9085 O.2     1  UNL1       -0.2463
      4 N         142.0855  141.7190  169.9334 N.ar    1  UNL1       -0.2765
      5 C         142.3124  142.0316  171.3829 C.3     1  UNL1        0.1352
      6 C         140.9229  140.9592  169.3669 C.ar    1  UNL1        0.0989
      7 C         139.7256  140.3276  170.0133 C.ar    1  UNL1        0.1175
      8 N         138.7057  139.6189  169.1722 N.ar    1  UNL1       -0.2422
      9 C         138.8830  139.5416  167.6847 C.ar    1  UNL1        0.0828
     10 C         137.8631  138.8328  166.8437 C.ar    1  UNL1        0.0191
     11 C         138.0404  138.7556  165.3562 C.ar    1  UNL1        0.0016
     12 C         139.2377  139.3871  164.7098 C.ar    1  UNL1        0.0016
     13 C         140.2576  140.0959  165.5509 C.ar    1  UNL1        0.0030
     14 C         140.0802  140.1731  167.0383 C.ar    1  UNL1        0.0350
     15 C         141.1002  140.8819  167.8794 C.ar    1  UNL1        0.0826
     16 C         139.4149  139.3099  163.2223 C.ar    1  UNL1        0.0194
     17 C         140.1706  140.3857  162.5002 C.ar    1  UNL1        0.0063
     18 C         140.3479  140.3084  161.0126 C.ar    1  UNL1        0.0577
     19 C         139.7695  139.1553  160.2473 C.ar    1  UNL1        0.2249
     20 N         139.0137  138.0795  160.9695 N.ar    1  UNL1       -0.2101
     21 C         138.8365  138.1568  162.4570 C.ar    1  UNL1        0.1020
     22 O         139.9467  139.0780  158.7599 O.3     1  UNL1       -0.4602
     23 C         141.0513  139.8450  158.0953 C.3     1  UNL1        0.2085
     24 C         142.3651  139.1774  157.8156 C.3     1  UNL1        0.0647
     25 C         142.8154  138.0237  158.6618 C.3     1  UNL1        0.0759
     26 N         143.2027  138.2498  160.0932 N.3     1  UNL1       -0.2725
     27 C         144.1013  139.2140  160.8092 C.3     1  UNL1        0.0735
     28 C         143.7505  138.5695  162.1175 C.3     1  UNL1        0.0346
     29 C         142.8519  137.6052  161.4015 C.3     1  UNL1        0.0735
     30 C         143.7344  141.9940  164.1951 C.3     1  UNL1        0.1191
     31 C         143.6800  140.8739  165.1914 C.3     1  UNL1        0.0524
     32 C         142.9365  141.7596  166.1467 C.3     1  UNL1        0.0947
     33 C         142.9908  142.8798  165.1505 C.3     1  UNL1        0.0524
     34 C         143.4534  142.7494  161.7253 C.3     1  UNL1        0.1740
     35 O         144.2985  142.1596  162.8152 O.3     1  UNL1       -0.3534
@<TRIPOS>BOND
     1    34    35    1
     2    30    35    1
     3    30    31    1
     4    31    32    1
     5    32     1    1
     6     1     2   ar
     7     2     3    2
     8     2     4   ar
     9     4     5    1
    10     4     6   ar
    11     6     7   ar
    12     7     8   ar
    13     8     9   ar
    14     9    10   ar
    15    10    11   ar
    16    11    12   ar
    17    12    16    1
    18    16    17   ar
    19    17    18   ar
    20    18    19   ar
    21    19    22    1
    22    22    23    1
    23    23    24    1
    24    24    25    1
    25    25    26    1
    26    26    27    1
    27    27    28    1
    28    28    29    1
    29    19    20   ar
    30    20    21   ar
    31    12    13   ar
    32    13    14   ar
    33    14    15   ar
    34    32    33    1
    35    33    30    1
    36    15     1   ar
    37    15     6   ar
    38    14     9   ar
    39    21    16   ar
    40    29    26    1
@<TRIPOS>MOLECULE
*****
 35 40 0 0 0
SMALL
GASTEIGER

@<TRIPOS>ATOM
      1 N         142.5235  141.4529  167.3523 N.ar    1  UNL1       -0.2815
      2 C         142.9163  142.0515  168.6704 C.ar    1  UNL1        0.3316
      3 O         144.1595  142.8455  168.9427 O.2     1  UNL1       -0.2463
      4 N         141.8477  141.7167  169.6684 N.ar    1  UNL1       -0.2765
      5 C         141.8346  142.1172  171.1140 C.3     1  UNL1        0.1352
      6 C         140.7945  140.9112  168.9672 C.ar    1  UNL1        0.0989
      7 C         139.5090  140.3051  169.4471 C.ar    1  UNL1        0.1175
      8 N         138.6413  139.5360  168.4956 N.ar    1  UNL1       -0.2422
      9 C         139.0590  139.3729  167.0641 C.ar    1  UNL1        0.0828
     10 C         138.1912  138.6037  166.1126 C.ar    1  UNL1        0.0191
     11 C         138.6089  138.4406  164.6813 C.ar    1  UNL1        0.0016
     12 C         139.8943  139.0467  164.2013 C.ar    1  UNL1        0.0016
     13 C         140.7621  139.8159  165.1528 C.ar    1  UNL1        0.0030
     14 C         140.3444  139.9789  166.5842 C.ar    1  UNL1        0.0350
     15 C         141.2122  140.7481  167.5358 C.ar    1  UNL1        0.0826
     16 C         140.3120  138.8836  162.7699 C.ar    1  UNL1        0.0194
     17 C         141.7316  139.1532  162.3674 C.ar    1  UNL1        0.0063
     18 C         142.1492  138.9902  160.9360 C.ar    1  UNL1        0.0577
     19 C         141.1472  138.5574  159.9070 C.ar    1  UNL1        0.2249
     20 N         139.7276  138.2878  160.3095 N.ar    1  UNL1       -0.2101
     21 C         139.3100  138.4509  161.7409 C.ar    1  UNL1        0.1020
     22 O         141.5648  138.3943  158.4756 O.3     1  UNL1       -0.4602
     23 C         142.8822  138.9414  158.0117 C.3     1  UNL1        0.2085
     24 C         143.0217  140.4035  157.7069 C.3     1  UNL1        0.0647
     25 C         144.3161  141.1078  157.9869 C.3     1  UNL1        0.0759
     26 N         145.3553  141.2226  156.9113 N.3     1  UNL1       -0.2725
     27 C         145.7020  140.4345  155.6830 C.3     1  UNL1        0.0735
     28 C         146.8250  141.3850  155.3901 C.3     1  UNL1        0.0346
     29 C         146.4782  142.1731  156.6184 C.3     1  UNL1        0.0735
     30 C         144.4099  141.6709  164.2688 C.3     1  UNL1        0.1191
     31 C         143.9271  140.5491  165.1399 C.3     1  UNL1        0.0524
     32 C         143.3049  141.5431  166.0751 C.3     1  UNL1        0.0947
     33 C         143.7876  142.6649  165.2041 C.3     1  UNL1        0.0524
     34 C         144.4737  141.8120  161.6754 C.3     1  UNL1        0.1740
     35 O         145.1913  141.7611  162.9916 O.3     1  UNL1       -0.3534
@<TRIPOS>BOND
     1    34    35    1
     2    30    35    1
     3    30    31    1
     4    31    32    1
     5    32     1    1
     6     1     2   ar
     7     2     3    2
     8     2     4   ar
     9     4     5    1
    10     4     6   ar
    11     6     7   ar
    12     7     8   ar
    13     8     9   ar
    14     9    10   ar
    15    10    11   ar
    16    11    12   ar
    17    12    16    1
    18    16    17   ar
    19    17    18   ar
    20    18    19   ar
    21    19    22    1
    22    22    23    1
    23    23    24    1
    24    24    25    1
    25    25    26    1
    26    26    27    1
    27    27    28    1
    28    28    29    1
    29    19    20   ar
    30    20    21   ar
    31    12    13   ar
    32    13    14   ar
    33    14    15   ar
    34    32    33    1
    35    33    30    1
    36    15     1   ar
    37    15     6   ar
    38    14     9   ar
    39    21    16   ar
    40    29    26    1
@<TRIPOS>MOLECULE
*****
 35 40 0 0 0
SMALL
GASTEIGER

@<TRIPOS>ATOM
      1 N         140.7332  141.2243  159.6075 N.ar    1  UNL1       -0.2815
      2 C         140.9682  141.1872  158.1264 C.ar    1  UNL1        0.3316
      3 O         141.2924  139.9676  157.3155 O.2     1  UNL1       -0.2463
      4 N         140.8221  142.5836  157.5987 N.ar    1  UNL1       -0.2765
      5 C         140.9745  143.0058  156.1674 C.3     1  UNL1        0.1352
      6 C         140.4967  143.4839  158.7536 C.ar    1  UNL1        0.0989
      7 C         140.2434  144.9601  158.8352 C.ar    1  UNL1        0.1175
      8 N         139.9352  145.5962  160.1582 N.ar    1  UNL1       -0.2422
      9 C         139.8802  144.7560  161.3997 C.ar    1  UNL1        0.0828
     10 C         139.5720  145.3921  162.7227 C.ar    1  UNL1        0.0191
     11 C         139.5170  144.5520  163.9641 C.ar    1  UNL1        0.0016
     12 C         139.7703  143.0758  163.8825 C.ar    1  UNL1        0.0016
     13 C         140.0786  142.4397  162.5595 C.ar    1  UNL1        0.0030
     14 C         140.1335  143.2798  161.3181 C.ar    1  UNL1        0.0350
     15 C         140.4418  142.6438  159.9950 C.ar    1  UNL1        0.0826
     16 C         139.7154  142.2357  165.1240 C.ar    1  UNL1        0.0194
     17 C         139.2222  140.8210  165.0510 C.ar    1  UNL1        0.0063
     18 C         139.1672  139.9809  166.2925 C.ar    1  UNL1        0.0577
     19 C         139.6055  140.5555  167.6069 C.ar    1  UNL1        0.2249
     20 N         140.0988  141.9703  167.6799 N.ar    1  UNL1       -0.2101
     21 C         140.1537  142.8103  166.4384 C.ar    1  UNL1        0.1020
     22 O         139.5506  139.7155  168.8484 O.3     1  UNL1       -0.4602
     23 C         140.6080  139.8640  169.9018 C.3     1  UNL1        0.2085
     24 C         142.0123  139.4162  169.6232 C.3     1  UNL1        0.0647
     25 C         142.8950  140.2308  168.7248 C.3     1  UNL1        0.0759
     26 N         142.9357  139.9445  167.2530 N.3     1  UNL1       -0.2725
     27 C         142.8448  138.7069  166.4103 C.3     1  UNL1        0.0735
     28 C         142.9931  139.5395  165.1714 C.3     1  UNL1        0.0346
     29 C         143.0840  140.7771  166.0141 C.3     1  UNL1        0.0735
     30 C         140.8488  138.3856  161.8529 C.3     1  UNL1        0.1191
     31 C         141.8542  139.3730  161.3388 C.3     1  UNL1        0.0524
     32 C         140.7811  140.0485  160.5375 C.3     1  UNL1        0.0947
     33 C         139.7756  139.0611  161.0516 C.3     1  UNL1        0.0524
     34 C         140.2220  137.2836  164.1206 C.3     1  UNL1        0.1740
     35 O         140.8967  137.2097  162.7830 O.3     1  UNL1       -0.3534
@<TRIPOS>BOND
     1    34    35    1
     2    30    35    1
     3    30    31    1
     4    31    32    1
     5    32     1    1
     6     1     2   ar
     7     2     3    2
     8     2     4   ar
     9     4     5    1
    10     4     6   ar
    11     6     7   ar
    12     7     8   ar
    13     8     9   ar
    14     9    10   ar
    15    10    11   ar
    16    11    12   ar
    17    12    16    1
    18    16    17   ar
    19    17    18   ar
    20    18    19   ar
    21    19    22    1
    22    22    23    1
    23    23    24    1
    24    24    25    1
    25    25    26    1
    26    26    27    1
    27    27    28    1
    28    28    29    1
    29    19    20   ar
    30    20    21   ar
    31    12    13   ar
    32    13    14   ar
    33    14    15   ar
    34    32    33    1
    35    33    30    1
    36    15     1   ar
    37    15     6   ar
    38    14     9   ar
    39    21    16   ar
    40    29    26    1
@<TRIPOS>MOLECULE
*****
 35 40 0 0 0
SMALL
GASTEIGER

@<TRIPOS>ATOM
      1 N         139.9503  143.7313  159.6485 N.ar    1  UNL1       -0.2815
      2 C         140.0121  144.4973  158.3603 C.ar    1  UNL1        0.3316
      3 O         140.7417  145.7887  158.1365 O.2     1  UNL1       -0.2463
      4 N         139.2163  143.7451  157.3351 N.ar    1  UNL1       -0.2765
      5 C         139.0103  144.1523  155.9061 C.3     1  UNL1        0.1352
      6 C         138.6626  142.5143  157.9897 C.ar    1  UNL1        0.0989
      7 C         137.8040  141.4002  157.4687 C.ar    1  UNL1        0.1175
      8 N         137.3990  140.2776  158.3773 N.ar    1  UNL1       -0.2422
      9 C         137.8527  140.2690  159.8071 C.ar    1  UNL1        0.0828
     10 C         137.4477  139.1464  160.7157 C.ar    1  UNL1        0.0191
     11 C         137.9014  139.1379  162.1454 C.ar    1  UNL1        0.0016
     12 C         138.7600  140.2520  162.6665 C.ar    1  UNL1        0.0016
     13 C         139.1650  141.3746  161.7578 C.ar    1  UNL1        0.0030
     14 C         138.7113  141.3831  160.3281 C.ar    1  UNL1        0.0350
     15 C         139.1163  142.5058  159.4194 C.ar    1  UNL1        0.0826
     16 C         139.2136  140.2434  164.0963 C.ar    1  UNL1        0.0194
     17 C         138.4526  139.4542  165.1199 C.ar    1  UNL1        0.0063
     18 C         138.9062  139.4456  166.5496 C.ar    1  UNL1        0.0577
     19 C         140.1209  140.2263  166.9557 C.ar    1  UNL1        0.2249
     20 N         140.8820  141.0156  165.9320 N.ar    1  UNL1       -0.2101
     21 C         140.4283  141.0241  164.5023 C.ar    1  UNL1        0.1020
     22 O         140.5746  140.2178  168.3854 O.3     1  UNL1       -0.4602
     23 C         141.9396  139.7043  168.7360 C.3     1  UNL1        0.2085
     24 C         142.4793  139.8949  170.1226 C.3     1  UNL1        0.0647
     25 C         141.7659  140.7941  171.0881 C.3     1  UNL1        0.0759
     26 N         141.2297  142.1164  170.6254 N.3     1  UNL1       -0.2725
     27 C         141.8182  143.3260  169.9617 C.3     1  UNL1        0.0735
     28 C         140.4714  143.9864  169.9710 C.3     1  UNL1        0.0346
     29 C         139.8829  142.7768  170.6348 C.3     1  UNL1        0.0735
     30 C         141.5361  144.6752  162.7643 C.3     1  UNL1        0.1191
     31 C         141.9335  143.8429  161.5813 C.3     1  UNL1        0.0524
     32 C         140.6072  144.1222  160.9391 C.3     1  UNL1        0.0947
     33 C         140.2096  144.9546  162.1220 C.3     1  UNL1        0.0524
     34 C         143.6892  145.0953  164.1562 C.3     1  UNL1        0.1740
     35 O         142.1929  145.0661  164.0549 O.3     1  UNL1       -0.3534
@<TRIPOS>BOND
     1    34    35    1
     2    30    35    1
     3    30    31    1
     4    31    32    1
     5    32     1    1
     6     1     2   ar
     7     2     3    2
     8     2     4   ar
     9     4     5    1
    10     4     6   ar
    11     6     7   ar
    12     7     8   ar
    13     8     9   ar
    14     9    10   ar
    15    10    11   ar
    16    11    12   ar
    17    12    16    1
    18    16    17   ar
    19    17    18   ar
    20    18    19   ar
    21    19    22    1
    22    22    23    1
    23    23    24    1
    24    24    25    1
    25    25    26    1
    26    26    27    1
    27    27    28    1
    28    28    29    1
    29    19    20   ar
    30    20    21   ar
    31    12    13   ar
    32    13    14   ar
    33    14    15   ar
    34    32    33    1
    35    33    30    1
    36    15     1   ar
    37    15     6   ar
    38    14     9   ar
    39    21    16   ar
    40    29    26    1
@<TRIPOS>MOLECULE
*****
 35 40 0 0 0
SMALL
GASTEIGER

@<TRIPOS>ATOM
      1 N         139.8990  140.4874  166.8638 N.ar    1  UNL1       -0.2815
      2 C         139.3764  139.9395  168.1587 C.ar    1  UNL1        0.3316
      3 O         138.1248  139.1312  168.3330 O.2     1  UNL1       -0.2463
      4 N         140.3252  140.3417  169.2487 N.ar    1  UNL1       -0.2765
      5 C         140.1889  140.0063  170.7045 C.3     1  UNL1        0.1352
      6 C         141.4341  141.1381  168.6275 C.ar    1  UNL1        0.0989
      7 C         142.6497  141.7930  169.2135 C.ar    1  UNL1        0.1175
      8 N         143.6019  142.5380  168.3257 N.ar    1  UNL1       -0.2422
      9 C         143.3385  142.6280  166.8517 C.ar    1  UNL1        0.0828
     10 C         144.2907  143.3730  165.9638 C.ar    1  UNL1        0.0191
     11 C         144.0272  143.4630  164.4899 C.ar    1  UNL1        0.0016
     12 C         142.8117  142.8081  163.9039 C.ar    1  UNL1        0.0016
     13 C         141.8595  142.0632  164.7917 C.ar    1  UNL1        0.0030
     14 C         142.1229  141.9732  166.2656 C.ar    1  UNL1        0.0350
     15 C         141.1707  141.2282  167.1536 C.ar    1  UNL1        0.0826
     16 C         142.5483  142.8982  162.4299 C.ar    1  UNL1        0.0194
     17 C         143.6513  142.6190  161.4524 C.ar    1  UNL1        0.0063
     18 C         143.3879  142.7090  159.9784 C.ar    1  UNL1        0.0577
     19 C         142.0215  143.0784  159.4820 C.ar    1  UNL1        0.2249
     20 N         140.9184  143.3576  160.4595 N.ar    1  UNL1       -0.2101
     21 C         141.1819  143.2676  161.9334 C.ar    1  UNL1        0.1020
     22 O         141.7580  143.1685  158.0080 O.3     1  UNL1       -0.4602
     23 C         142.2049  144.3761  157.2388 C.3     1  UNL1        0.2085
     24 C         141.6521  145.7286  157.5784 C.3     1  UNL1        0.0647
     25 C         140.2115  146.0412  157.3011 C.3     1  UNL1        0.0759
     26 N         139.8460  146.9425  156.1591 N.3     1  UNL1       -0.2725
     27 C         138.9063  148.0976  155.9784 C.3     1  UNL1        0.0735
     28 C         139.3292  148.2173  154.5441 C.3     1  UNL1        0.0346
     29 C         140.2689  147.0622  154.7249 C.3     1  UNL1        0.0735
     30 C         138.3606  140.0912  163.6096 C.3     1  UNL1        0.1191
     31 C         138.3028  141.1293  164.6908 C.3     1  UNL1        0.0524
     32 C         139.2617  140.3233  165.5159 C.3     1  UNL1        0.0947
     33 C         139.3195  139.2851  164.4347 C.3     1  UNL1        0.0524
     34 C         138.4585  140.3575  161.0271 C.3     1  UNL1        0.1740
     35 O         137.7233  139.9271  162.2616 O.3     1  UNL1       -0.3534
@<TRIPOS>BOND
     1    34    35    1
     2    30    35    1
     3    30    31    1
     4    31    32    1
     5    32     1    1
     6     1     2   ar
     7     2     3    2
     8     2     4   ar
     9     4     5    1
    10     4     6   ar
    11     6     7   ar
    12     7     8   ar
    13     8     9   ar
    14     9    10   ar
    15    10    11   ar
    16    11    12   ar
    17    12    16    1
    18    16    17   ar
    19    17    18   ar
    20    18    19   ar
    21    19    22    1
    22    22    23    1
    23    23    24    1
    24    24    25    1
    25    25    26    1
    26    26    27    1
    27    27    28    1
    28    28    29    1
    29    19    20   ar
    30    20    21   ar
    31    12    13   ar
    32    13    14   ar
    33    14    15   ar
    34    32    33    1
    35    33    30    1
    36    15     1   ar
    37    15     6   ar
    38    14     9   ar
    39    21    16   ar
    40    29    26    1
