@<TRIPOS>MOLECULE
*****
 38 41 0 0 0
SMALL
GASTEIGER

@<TRIPOS>ATOM
      1 N         141.2922  143.2254  164.7162 N.am    1  UNL1       -0.2683
      2 C         140.3801  144.0955  163.9032 C.2     1  UNL1        0.3045
      3 O         138.8970  144.0361  164.1199 O.2     1  UNL1       -0.2525
      4 N         140.9511  145.0249  162.8736 N.am    1  UNL1       -0.2887
      5 H         142.2656  143.2643  164.5740 H       1  UNL1        0.1564
      6 H         141.9244  145.0639  162.7314 H       1  UNL1        0.1510
      7 C         139.3187  140.1934  166.3480 C.ar    1  UNL1       -0.0212
      8 C         139.8897  141.1229  165.3184 C.ar    1  UNL1        0.0104
      9 C         140.7212  142.2959  165.7459 C.ar    1  UNL1        0.0514
     10 C         140.9817  142.5394  167.2028 C.ar    1  UNL1        0.0178
     11 C         140.4107  141.6099  168.2324 C.ar    1  UNL1        0.0383
     12 C         139.5792  140.4370  167.8050 C.ar    1  UNL1       -0.0011
     13 C         140.6713  141.8534  169.6894 C.ar    1  UNL1        0.1839
     14 N         139.6326  142.1205  170.7382 N.ar    1  UNL1       -0.1081
     15 N         140.3355  142.3048  172.0504 N.ar    1  UNL1       -0.0227
     16 N         141.8086  142.1515  171.8126 N.ar    1  UNL1       -0.0429
     17 N         142.0161  141.8726  170.3535 N.ar    1  UNL1       -0.2113
     18 C         143.3366  141.6516  169.6772 C.3     1  UNL1        0.1573
     19 C         138.5134  138.5632  164.4923 C.3     1  UNL1        0.0047
     20 C         138.4872  139.0205  165.9206 C.3     1  UNL1        0.0224
     21 C         137.6294  138.3047  166.9215 C.3     1  UNL1        0.0047
     22 C         140.0389  145.8950  162.0607 C.3     1  UNL1        0.0924
     23 C         140.0813  145.8326  160.5625 C.3     1  UNL1        0.0386
     24 C         140.5869  144.5977  159.8773 C.3     1  UNL1        0.0738
     25 N         140.3110  143.2465  160.4671 N.3     1  UNL1       -0.2726
     26 C         138.8968  142.8066  160.7053 C.3     1  UNL1        0.0721
     27 C         138.6209  141.4554  161.2950 C.3     1  UNL1        0.0174
     28 C         139.7591  140.5439  161.6467 C.3     1  UNL1        0.0031
     29 C         141.1733  140.9837  161.4086 C.3     1  UNL1        0.0204
     30 C         141.4492  142.3350  160.8188 C.3     1  UNL1        0.0724
     31 C         142.3115  140.0723  161.7603 C.3     1  UNL1        0.0277
     32 C         142.5575  139.6975  163.1917 C.ar    1  UNL1       -0.0220
     33 C         141.9318  138.4587  163.7608 C.ar    1  UNL1       -0.0020
     34 C         142.1778  138.0840  165.1923 C.ar    1  UNL1        0.0293
     35 C         143.0495  138.9480  166.0546 C.ar    1  UNL1        0.1401
     36 F         143.2955  138.5733  167.4861 F       1  UNL1       -0.2042
     37 C         143.6752  140.1868  165.4855 C.ar    1  UNL1        0.0293
     38 C         143.4292  140.5615  164.0540 C.ar    1  UNL1       -0.0020
@<TRIPOS>BOND
     1    19    20    1
     2    20    21    1
     3    20     7    1
     4     7     8   ar
     5     8     9   ar
     6     9     1    1
     7     1     2   am
     8     2     3    2
     9     2     4   am
    10     4    22    1
    11    22    23    1
    12    23    24    1
    13    24    25    1
    14    25    26    1
    15    26    27    1
    16    27    28    1
    17    28    29    1
    18    29    31    1
    19    31    32    1
    20    32    33   ar
    21    33    34   ar
    22    34    35   ar
    23    35    36    1
    24    35    37   ar
    25    37    38   ar
    26    29    30    1
    27     9    10   ar
    28    10    11   ar
    29    11    13    1
    30    13    14   ar
    31    14    15   ar
    32    15    16   ar
    33    16    17   ar
    34    17    18    1
    35    11    12   ar
    36    12     7   ar
    37    30    25    1
    38    17    13   ar
    39    38    32   ar
    40     1     5    1
    41     4     6    1
@<TRIPOS>MOLECULE
*****
 38 41 0 0 0
SMALL
GASTEIGER

@<TRIPOS>ATOM
      1 N         141.6935  142.1707  163.4593 N.am    1  UNL1       -0.2683
      2 C         142.6542  141.2741  162.7361 C.2     1  UNL1        0.3045
      3 O         142.9921  139.9261  163.3007 O.2     1  UNL1       -0.2525
      4 N         143.2770  141.7254  161.4483 N.am    1  UNL1       -0.2887
      5 H         141.4717  143.0555  163.0887 H       1  UNL1        0.1564
      6 H         143.0552  142.6101  161.0777 H       1  UNL1        0.1510
      7 C         139.5853  140.0410  166.0612 C.ar    1  UNL1       -0.0212
      8 C         140.2081  140.4924  164.7735 C.ar    1  UNL1        0.0104
      9 C         141.0707  141.7194  164.7471 C.ar    1  UNL1        0.0514
     10 C         141.3104  142.4949  166.0084 C.ar    1  UNL1        0.0178
     11 C         140.6876  142.0435  167.2962 C.ar    1  UNL1        0.0383
     12 C         139.8250  140.8166  167.3226 C.ar    1  UNL1       -0.0011
     13 C         140.9273  142.8191  168.5576 C.ar    1  UNL1        0.1839
     14 N         140.0486  143.9041  169.1059 N.ar    1  UNL1       -0.1081
     15 N         140.6659  144.4014  170.3793 N.ar    1  UNL1       -0.0227
     16 N         141.9262  143.6237  170.6180 N.ar    1  UNL1       -0.0429
     17 N         142.0876  142.6457  169.4922 N.ar    1  UNL1       -0.2113
     18 C         143.2121  141.6665  169.3295 C.3     1  UNL1        0.1573
     19 C         138.9216  137.7355  165.0644 C.3     1  UNL1        0.0047
     20 C         138.7228  138.8141  166.0876 C.3     1  UNL1        0.0224
     21 C         137.6616  138.6658  167.1372 C.3     1  UNL1        0.0047
     22 C         144.2377  140.8288  160.7251 C.3     1  UNL1        0.0924
     23 C         143.7205  139.7458  159.8251 C.3     1  UNL1        0.0386
     24 C         142.3926  139.9055  159.1460 C.3     1  UNL1        0.0738
     25 N         141.1247  139.7530  159.9329 N.3     1  UNL1       -0.2726
     26 C         140.7635  138.4219  160.5225 C.3     1  UNL1        0.0721
     27 C         139.4956  138.2694  161.3094 C.3     1  UNL1        0.0174
     28 C         138.5889  139.4480  161.5066 C.3     1  UNL1        0.0031
     29 C         138.9501  140.7791  160.9169 C.3     1  UNL1        0.0204
     30 C         140.2181  140.9315  160.1300 C.3     1  UNL1        0.0724
     31 C         138.0434  141.9576  161.1141 C.3     1  UNL1        0.0277
     32 C         138.1858  142.8174  162.3349 C.ar    1  UNL1       -0.0220
     33 C         137.5175  142.4165  163.6166 C.ar    1  UNL1       -0.0020
     34 C         137.6599  143.2764  164.8375 C.ar    1  UNL1        0.0293
     35 C         138.4705  144.5369  164.7767 C.ar    1  UNL1        0.1401
     36 F         138.6129  145.3968  165.9976 F       1  UNL1       -0.2042
     37 C         139.1388  144.9378  163.4950 C.ar    1  UNL1        0.0293
     38 C         138.9965  144.0780  162.2741 C.ar    1  UNL1       -0.0020
@<TRIPOS>BOND
     1    19    20    1
     2    20    21    1
     3    20     7    1
     4     7     8   ar
     5     8     9   ar
     6     9     1    1
     7     1     2   am
     8     2     3    2
     9     2     4   am
    10     4    22    1
    11    22    23    1
    12    23    24    1
    13    24    25    1
    14    25    26    1
    15    26    27    1
    16    27    28    1
    17    28    29    1
    18    29    31    1
    19    31    32    1
    20    32    33   ar
    21    33    34   ar
    22    34    35   ar
    23    35    36    1
    24    35    37   ar
    25    37    38   ar
    26    29    30    1
    27     9    10   ar
    28    10    11   ar
    29    11    13    1
    30    13    14   ar
    31    14    15   ar
    32    15    16   ar
    33    16    17   ar
    34    17    18    1
    35    11    12   ar
    36    12     7   ar
    37    30    25    1
    38    17    13   ar
    39    38    32   ar
    40     1     5    1
    41     4     6    1
@<TRIPOS>MOLECULE
*****
 38 41 0 0 0
SMALL
GASTEIGER

@<TRIPOS>ATOM
      1 N         143.4269  139.9430  165.4788 N.am    1  UNL1       -0.2683
      2 C         143.8259  141.0394  164.5361 C.2     1  UNL1        0.3045
      3 O         142.9052  142.2007  164.3038 O.2     1  UNL1       -0.2525
      4 N         145.1454  140.9746  163.8257 N.am    1  UNL1       -0.2887
      5 H         144.0312  139.1808  165.6313 H       1  UNL1        0.1564
      6 H         145.7496  140.2124  163.9782 H       1  UNL1        0.1510
      7 C         139.6708  139.1583  166.4917 C.ar    1  UNL1       -0.0212
      8 C         140.9903  139.0935  165.7814 C.ar    1  UNL1        0.0104
      9 C         142.1074  140.0078  166.1892 C.ar    1  UNL1        0.0514
     10 C         141.9049  140.9869  167.3074 C.ar    1  UNL1        0.0178
     11 C         140.5854  141.0517  168.0177 C.ar    1  UNL1        0.0383
     12 C         139.4683  140.1374  167.6099 C.ar    1  UNL1       -0.0011
     13 C         140.3828  142.0309  169.1359 C.ar    1  UNL1        0.1839
     14 N         140.1793  143.5095  168.9870 N.ar    1  UNL1       -0.1081
     15 N         140.0189  144.0958  170.3584 N.ar    1  UNL1       -0.0227
     16 N         140.1233  142.9794  171.3548 N.ar    1  UNL1       -0.0429
     17 N         140.3482  141.7033  170.5993 N.ar    1  UNL1       -0.2113
     18 C         140.5101  140.3390  171.2015 C.3     1  UNL1        0.1573
     19 C         137.3972  138.0132  167.0107 C.3     1  UNL1        0.0047
     20 C         138.5538  138.2440  166.0839 C.3     1  UNL1        0.0224
     21 C         138.5933  137.5606  164.7493 C.3     1  UNL1        0.0047
     22 C         145.5443  142.0711  162.8831 C.3     1  UNL1        0.0924
     23 C         144.7414  142.3212  161.6409 C.3     1  UNL1        0.0386
     24 C         144.2654  141.1665  160.8103 C.3     1  UNL1        0.0738
     25 N         143.0703  140.3715  161.2461 N.3     1  UNL1       -0.2726
     26 C         143.2279  138.9302  161.6307 C.3     1  UNL1        0.0721
     27 C         142.0329  138.1353  162.0664 C.3     1  UNL1        0.0174
     28 C         140.6802  138.7816  162.1176 C.3     1  UNL1        0.0031
     29 C         140.5226  140.2229  161.7330 C.3     1  UNL1        0.0204
     30 C         141.7177  141.0178  161.2972 C.3     1  UNL1        0.0724
     31 C         139.1700  140.8692  161.7841 C.3     1  UNL1        0.0277
     32 C         138.9002  141.9670  162.7700 C.ar    1  UNL1       -0.0220
     33 C         138.0784  143.1543  162.3640 C.ar    1  UNL1       -0.0020
     34 C         137.8086  144.2522  163.3499 C.ar    1  UNL1        0.0293
     35 C         138.3606  144.1627  164.7417 C.ar    1  UNL1        0.1401
     36 F         138.0908  145.2606  165.7277 F       1  UNL1       -0.2042
     37 C         139.1824  142.9753  165.1477 C.ar    1  UNL1        0.0293
     38 C         139.4522  141.8775  164.1619 C.ar    1  UNL1       -0.0020
@<TRIPOS>BOND
     1    19    20    1
     2    20    21    1
     3    20     7    1
     4     7     8   ar
     5     8     9   ar
     6     9     1    1
     7     1     2   am
     8     2     3    2
     9     2     4   am
    10     4    22    1
    11    22    23    1
    12    23    24    1
    13    24    25    1
    14    25    26    1
    15    26    27    1
    16    27    28    1
    17    28    29    1
    18    29    31    1
    19    31    32    1
    20    32    33   ar
    21    33    34   ar
    22    34    35   ar
    23    35    36    1
    24    35    37   ar
    25    37    38   ar
    26    29    30    1
    27     9    10   ar
    28    10    11   ar
    29    11    13    1
    30    13    14   ar
    31    14    15   ar
    32    15    16   ar
    33    16    17   ar
    34    17    18    1
    35    11    12   ar
    36    12     7   ar
    37    30    25    1
    38    17    13   ar
    39    38    32   ar
    40     1     5    1
    41     4     6    1
@<TRIPOS>MOLECULE
*****
 38 41 0 0 0
SMALL
GASTEIGER

@<TRIPOS>ATOM
      1 N         139.7063  143.4287  164.8781 N.am    1  UNL1       -0.2683
      2 C         140.3379  144.3506  163.8776 C.2     1  UNL1        0.3045
      3 O         141.8294  144.3789  163.7208 O.2     1  UNL1       -0.2525
      4 N         139.4780  145.2443  163.0338 N.am    1  UNL1       -0.2887
      5 H         138.7273  143.4101  164.9810 H       1  UNL1        0.1564
      6 H         138.4991  145.2257  163.1367 H       1  UNL1        0.1510
      7 C         142.3209  140.6287  165.9145 C.ar    1  UNL1       -0.0212
      8 C         141.4609  141.5224  165.0708 C.ar    1  UNL1        0.0104
      9 C         140.5662  142.5350  165.7219 C.ar    1  UNL1        0.0514
     10 C         140.5315  142.6541  167.2167 C.ar    1  UNL1        0.0178
     11 C         141.3914  141.7605  168.0605 C.ar    1  UNL1        0.0383
     12 C         142.2861  140.7478  167.4093 C.ar    1  UNL1       -0.0011
     13 C         141.3567  141.8795  169.5554 C.ar    1  UNL1        0.1839
     14 N         142.3957  142.5410  170.4115 N.ar    1  UNL1       -0.1081
     15 N         141.9580  142.4283  171.8418 N.ar    1  UNL1       -0.0227
     16 N         140.6485  141.6972  171.8696 N.ar    1  UNL1       -0.0429
     17 N         140.2769  141.3580  170.4565 N.ar    1  UNL1       -0.2113
     18 C         139.0422  140.6259  170.0211 C.3     1  UNL1        0.1573
     19 C         142.9703  138.1516  165.4762 C.3     1  UNL1        0.0047
     20 C         143.2156  139.6160  165.2634 C.3     1  UNL1        0.0224
     21 C         144.3555  140.0677  164.3994 C.3     1  UNL1        0.0047
     22 C         140.1096  146.1662  162.0332 C.3     1  UNL1        0.0924
     23 C         140.4233  145.6724  160.6519 C.3     1  UNL1        0.0386
     24 C         139.9069  144.3398  160.1966 C.3     1  UNL1        0.0738
     25 N         140.5971  143.0803  160.6292 N.3     1  UNL1       -0.2726
     26 C         142.0936  143.0392  160.7223 C.3     1  UNL1        0.0721
     27 C         142.7838  141.7797  161.1549 C.3     1  UNL1        0.0174
     28 C         141.9775  140.5612  161.4945 C.3     1  UNL1        0.0031
     29 C         140.4810  140.6023  161.4015 C.3     1  UNL1        0.0204
     30 C         139.7907  141.8619  160.9688 C.3     1  UNL1        0.0724
     31 C         139.6746  139.3840  161.7410 C.3     1  UNL1        0.0277
     32 C         139.2388  139.1435  163.1560 C.ar    1  UNL1       -0.0220
     33 C         138.4340  140.1820  163.8797 C.ar    1  UNL1       -0.0020
     34 C         137.9982  139.9414  165.2948 C.ar    1  UNL1        0.0293
     35 C         138.3673  138.6624  165.9860 C.ar    1  UNL1        0.1401
     36 F         137.9315  138.4218  167.4011 F       1  UNL1       -0.2042
     37 C         139.1721  137.6239  165.2623 C.ar    1  UNL1        0.0293
     38 C         139.6079  137.8644  163.8473 C.ar    1  UNL1       -0.0020
@<TRIPOS>BOND
     1    19    20    1
     2    20    21    1
     3    20     7    1
     4     7     8   ar
     5     8     9   ar
     6     9     1    1
     7     1     2   am
     8     2     3    2
     9     2     4   am
    10     4    22    1
    11    22    23    1
    12    23    24    1
    13    24    25    1
    14    25    26    1
    15    26    27    1
    16    27    28    1
    17    28    29    1
    18    29    31    1
    19    31    32    1
    20    32    33   ar
    21    33    34   ar
    22    34    35   ar
    23    35    36    1
    24    35    37   ar
    25    37    38   ar
    26    29    30    1
    27     9    10   ar
    28    10    11   ar
    29    11    13    1
    30    13    14   ar
    31    14    15   ar
    32    15    16   ar
    33    16    17   ar
    34    17    18    1
    35    11    12   ar
    36    12     7   ar
    37    30    25    1
    38    17    13   ar
    39    38    32   ar
    40     1     5    1
    41     4     6    1
@<TRIPOS>MOLECULE
*****
 38 41 0 0 0
SMALL
GASTEIGER

@<TRIPOS>ATOM
      1 N         141.2332  138.5578  165.0347 N.am    1  UNL1       -0.2683
      2 C         140.0665  138.8220  164.1296 C.2     1  UNL1        0.3045
      3 O         139.5468  140.2194  163.9645 O.2     1  UNL1       -0.2525
      4 N         139.4196  137.6888  163.3898 N.am    1  UNL1       -0.2887
      5 H         141.5743  137.6407  165.1431 H       1  UNL1        0.1564
      6 H         139.7607  136.7717  163.4982 H       1  UNL1        0.1510
      7 C         143.4918  141.7286  165.8061 C.ar    1  UNL1       -0.0212
      8 C         142.8449  140.5954  165.0664 C.ar    1  UNL1        0.0104
      9 C         141.8802  139.6910  165.7745 C.ar    1  UNL1        0.0514
     10 C         141.5624  139.9199  167.2225 C.ar    1  UNL1        0.0178
     11 C         142.2093  141.0530  167.9623 C.ar    1  UNL1        0.0383
     12 C         143.1740  141.9574  167.2541 C.ar    1  UNL1       -0.0011
     13 C         141.8916  141.2819  169.4103 C.ar    1  UNL1        0.1839
     14 N         142.3693  140.4461  170.5606 N.ar    1  UNL1       -0.1081
     15 N         141.8133  141.0344  171.8234 N.ar    1  UNL1       -0.0227
     16 N         140.9919  142.2338  171.4536 N.ar    1  UNL1       -0.0429
     17 N         141.0403  142.3867  169.9622 N.ar    1  UNL1       -0.2113
     18 C         140.3572  143.4567  169.1631 C.3     1  UNL1        0.1573
     19 C         144.4561  144.1045  165.3881 C.3     1  UNL1        0.0047
     20 C         144.4565  142.6329  165.0980 C.3     1  UNL1        0.0224
     21 C         145.4216  142.0656  164.0997 C.3     1  UNL1        0.0047
     22 C         138.2529  137.9530  162.4848 C.3     1  UNL1        0.0924
     23 C         138.4817  138.4955  161.1051 C.3     1  UNL1        0.0386
     24 C         139.8148  138.3180  160.4410 C.3     1  UNL1        0.0738
     25 N         140.9405  139.2582  160.7553 N.3     1  UNL1       -0.2726
     26 C         142.3353  138.7306  160.9176 C.3     1  UNL1        0.0721
     27 C         143.4609  139.6708  161.2319 C.3     1  UNL1        0.0174
     28 C         143.1919  141.1386  161.3839 C.3     1  UNL1        0.0031
     29 C         141.7972  141.6662  161.2215 C.3     1  UNL1        0.0204
     30 C         140.6715  140.7260  160.9072 C.3     1  UNL1        0.0724
     31 C         141.5281  143.1340  161.3735 C.3     1  UNL1        0.0277
     32 C         140.6130  143.6204  162.4579 C.ar    1  UNL1       -0.0220
     33 C         141.0572  143.5764  163.8899 C.ar    1  UNL1       -0.0020
     34 C         140.1419  144.0628  164.9743 C.ar    1  UNL1        0.0293
     35 C         138.7826  144.5932  164.6267 C.ar    1  UNL1        0.1401
     36 F         137.8674  145.0796  165.7111 F       1  UNL1       -0.2042
     37 C         138.3385  144.6372  163.1946 C.ar    1  UNL1        0.0293
     38 C         139.2536  144.1508  162.1102 C.ar    1  UNL1       -0.0020
@<TRIPOS>BOND
     1    19    20    1
     2    20    21    1
     3    20     7    1
     4     7     8   ar
     5     8     9   ar
     6     9     1    1
     7     1     2   am
     8     2     3    2
     9     2     4   am
    10     4    22    1
    11    22    23    1
    12    23    24    1
    13    24    25    1
    14    25    26    1
    15    26    27    1
    16    27    28    1
    17    28    29    1
    18    29    31    1
    19    31    32    1
    20    32    33   ar
    21    33    34   ar
    22    34    35   ar
    23    35    36    1
    24    35    37   ar
    25    37    38   ar
    26    29    30    1
    27     9    10   ar
    28    10    11   ar
    29    11    13    1
    30    13    14   ar
    31    14    15   ar
    32    15    16   ar
    33    16    17   ar
    34    17    18    1
    35    11    12   ar
    36    12     7   ar
    37    30    25    1
    38    17    13   ar
    39    38    32   ar
    40     1     5    1
    41     4     6    1
@<TRIPOS>MOLECULE
*****
 38 41 0 0 0
SMALL
GASTEIGER

@<TRIPOS>ATOM
      1 N         140.2081  144.2538  165.1634 N.am    1  UNL1       -0.2683
      2 C         139.7875  144.3297  163.7256 C.2     1  UNL1        0.3045
      3 O         139.1507  143.1420  163.0668 O.2     1  UNL1       -0.2525
      4 N         140.0037  145.5931  162.9466 N.am    1  UNL1       -0.2887
      5 H         140.6260  145.0333  165.5958 H       1  UNL1        0.1564
      6 H         140.4217  146.3726  163.3789 H       1  UNL1        0.1510
      7 C         139.1914  140.5208  166.0473 C.ar    1  UNL1       -0.0212
      8 C         139.4077  141.7843  165.2684 C.ar    1  UNL1        0.0104
      9 C         139.9918  142.9903  165.9424 C.ar    1  UNL1        0.0514
     10 C         140.3597  142.9328  167.3955 C.ar    1  UNL1        0.0178
     11 C         140.1435  141.6693  168.1744 C.ar    1  UNL1        0.0383
     12 C         139.5593  140.4633  167.5003 C.ar    1  UNL1       -0.0011
     13 C         140.5114  141.6118  169.6275 C.ar    1  UNL1        0.1839
     14 N         139.7560  142.2521  170.7543 N.ar    1  UNL1       -0.1081
     15 N         140.4769  141.9399  172.0321 N.ar    1  UNL1       -0.0227
     16 N         141.6779  141.1066  171.6950 N.ar    1  UNL1       -0.0429
     17 N         141.6991  140.9039  170.2090 N.ar    1  UNL1       -0.2113
     18 C         142.7275  140.1292  169.4395 C.3     1  UNL1        0.1573
     19 C         138.2129  138.1182  166.1871 C.3     1  UNL1        0.0047
     20 C         138.6073  139.3148  165.3733 C.3     1  UNL1        0.0224
     21 C         138.4176  139.3055  163.8854 C.3     1  UNL1        0.0047
     22 C         139.5832  145.6689  161.5087 C.3     1  UNL1        0.0924
     23 C         140.6097  145.5604  160.4203 C.3     1  UNL1        0.0386
     24 C         140.9464  144.2196  159.8379 C.3     1  UNL1        0.0738
     25 N         142.1539  143.4733  160.3224 N.3     1  UNL1       -0.2726
     26 C         143.3048  143.2248  159.3931 C.3     1  UNL1        0.0721
     27 C         144.5123  142.4784  159.8776 C.3     1  UNL1        0.0174
     28 C         144.5691  141.9806  161.2915 C.3     1  UNL1        0.0031
     29 C         143.4182  142.2292  162.2208 C.3     1  UNL1        0.0204
     30 C         142.2106  142.9755  161.7363 C.3     1  UNL1        0.0724
     31 C         143.4748  141.7314  163.6346 C.3     1  UNL1        0.0277
     32 C         142.9053  140.3874  163.9799 C.ar    1  UNL1       -0.0220
     33 C         142.8639  139.9352  165.4095 C.ar    1  UNL1       -0.0020
     34 C         142.2943  138.5911  165.7548 C.ar    1  UNL1        0.0293
     35 C         141.7663  137.6993  164.6704 C.ar    1  UNL1        0.1401
     36 F         141.1968  136.3552  165.0157 F       1  UNL1       -0.2042
     37 C         141.8078  138.1515  163.2408 C.ar    1  UNL1        0.0293
     38 C         142.3773  139.4955  162.8956 C.ar    1  UNL1       -0.0020
@<TRIPOS>BOND
     1    19    20    1
     2    20    21    1
     3    20     7    1
     4     7     8   ar
     5     8     9   ar
     6     9     1    1
     7     1     2   am
     8     2     3    2
     9     2     4   am
    10     4    22    1
    11    22    23    1
    12    23    24    1
    13    24    25    1
    14    25    26    1
    15    26    27    1
    16    27    28    1
    17    28    29    1
    18    29    31    1
    19    31    32    1
    20    32    33   ar
    21    33    34   ar
    22    34    35   ar
    23    35    36    1
    24    35    37   ar
    25    37    38   ar
    26    29    30    1
    27     9    10   ar
    28    10    11   ar
    29    11    13    1
    30    13    14   ar
    31    14    15   ar
    32    15    16   ar
    33    16    17   ar
    34    17    18    1
    35    11    12   ar
    36    12     7   ar
    37    30    25    1
    38    17    13   ar
    39    38    32   ar
    40     1     5    1
    41     4     6    1
@<TRIPOS>MOLECULE
*****
 38 41 0 0 0
SMALL
GASTEIGER

@<TRIPOS>ATOM
      1 N         140.9433  139.1742  164.9066 N.am    1  UNL1       -0.2683
      2 C         142.0634  139.2503  163.9118 C.2     1  UNL1        0.3045
      3 O         142.7682  140.5530  163.6742 O.2     1  UNL1       -0.2525
      4 N         142.4786  138.0239  163.1547 N.am    1  UNL1       -0.2887
      5 H         140.4807  138.3193  165.0625 H       1  UNL1        0.1564
      6 H         142.0160  137.1689  163.3106 H       1  UNL1        0.1510
      7 C         139.3697  142.7256  165.7198 C.ar    1  UNL1       -0.0212
      8 C         139.7849  141.4991  164.9627 C.ar    1  UNL1        0.0104
      9 C         140.5280  140.4007  165.6638 C.ar    1  UNL1        0.0514
     10 C         140.8558  140.5288  167.1219 C.ar    1  UNL1        0.0178
     11 C         140.4405  141.7553  167.8789 C.ar    1  UNL1        0.0383
     12 C         139.6975  142.8537  167.1779 C.ar    1  UNL1       -0.0011
     13 C         140.7683  141.8835  169.3371 C.ar    1  UNL1        0.1839
     14 N         139.7972  141.7577  170.4734 N.ar    1  UNL1       -0.1081
     15 N         140.5534  141.9564  171.7536 N.ar    1  UNL1       -0.0227
     16 N         141.9919  142.2049  171.4084 N.ar    1  UNL1       -0.0429
     17 N         142.1246  142.1598  169.9150 N.ar    1  UNL1       -0.2113
     18 C         143.3914  142.3566  169.1361 C.3     1  UNL1        0.1573
     19 C         138.0046  143.5714  163.6775 C.3     1  UNL1        0.0047
     20 C         138.6266  143.8240  165.0188 C.3     1  UNL1        0.0224
     21 C         138.5056  145.1750  165.6591 C.3     1  UNL1        0.0047
     22 C         143.5987  138.1000  162.1599 C.3     1  UNL1        0.0924
     23 C         143.3016  138.3747  160.7154 C.3     1  UNL1        0.0386
     24 C         141.8896  138.3058  160.2139 C.3     1  UNL1        0.0738
     25 N         140.9552  139.4565  160.4435 N.3     1  UNL1       -0.2726
     26 C         139.5093  139.1991  160.7485 C.3     1  UNL1        0.0721
     27 C         138.5748  140.3498  160.9780 C.3     1  UNL1        0.0174
     28 C         139.0863  141.7579  160.9026 C.3     1  UNL1        0.0031
     29 C         140.5323  142.0153  160.5976 C.3     1  UNL1        0.0204
     30 C         141.4667  140.8645  160.3680 C.3     1  UNL1        0.0724
     31 C         141.0438  143.4233  160.5221 C.3     1  UNL1        0.0277
     32 C         141.8650  143.9841  161.6451 C.ar    1  UNL1       -0.0220
     33 C         141.2247  144.8689  162.6733 C.ar    1  UNL1       -0.0020
     34 C         142.0460  145.4297  163.7963 C.ar    1  UNL1        0.0293
     35 C         143.5075  145.1056  163.8911 C.ar    1  UNL1        0.1401
     36 F         144.3288  145.6664  165.0141 F       1  UNL1       -0.2042
     37 C         144.1478  144.2208  162.8629 C.ar    1  UNL1        0.0293
     38 C         143.3266  143.6601  161.7399 C.ar    1  UNL1       -0.0020
@<TRIPOS>BOND
     1    19    20    1
     2    20    21    1
     3    20     7    1
     4     7     8   ar
     5     8     9   ar
     6     9     1    1
     7     1     2   am
     8     2     3    2
     9     2     4   am
    10     4    22    1
    11    22    23    1
    12    23    24    1
    13    24    25    1
    14    25    26    1
    15    26    27    1
    16    27    28    1
    17    28    29    1
    18    29    31    1
    19    31    32    1
    20    32    33   ar
    21    33    34   ar
    22    34    35   ar
    23    35    36    1
    24    35    37   ar
    25    37    38   ar
    26    29    30    1
    27     9    10   ar
    28    10    11   ar
    29    11    13    1
    30    13    14   ar
    31    14    15   ar
    32    15    16   ar
    33    16    17   ar
    34    17    18    1
    35    11    12   ar
    36    12     7   ar
    37    30    25    1
    38    17    13   ar
    39    38    32   ar
    40     1     5    1
    41     4     6    1
@<TRIPOS>MOLECULE
*****
 38 41 0 0 0
SMALL
GASTEIGER

@<TRIPOS>ATOM
      1 N         139.5733  143.6241  164.9911 N.am    1  UNL1       -0.2683
      2 C         140.2607  144.3888  163.8990 C.2     1  UNL1        0.3045
      3 O         141.7121  144.1432  163.6104 O.2     1  UNL1       -0.2525
      4 N         139.4967  145.3991  163.0956 N.am    1  UNL1       -0.2887
      5 H         138.6207  143.7853  165.1806 H       1  UNL1        0.1564
      6 H         138.5442  145.5603  163.2850 H       1  UNL1        0.1510
      7 C         142.0096  140.6287  165.9089 C.ar    1  UNL1       -0.0212
      8 C         141.2456  141.6390  165.1055 C.ar    1  UNL1        0.0104
      9 C         140.3373  142.6137  165.7946 C.ar    1  UNL1        0.0514
     10 C         140.1930  142.5781  167.2872 C.ar    1  UNL1        0.0178
     11 C         140.9570  141.5678  168.0906 C.ar    1  UNL1        0.0383
     12 C         141.8653  140.5931  167.4015 C.ar    1  UNL1       -0.0011
     13 C         140.8126  141.5321  169.5833 C.ar    1  UNL1        0.1839
     14 N         140.8694  140.3059  170.4455 N.ar    1  UNL1       -0.1081
     15 N         140.6781  140.7322  171.8708 N.ar    1  UNL1       -0.0227
     16 N         140.5031  142.2219  171.8895 N.ar    1  UNL1       -0.0429
     17 N         140.5862  142.7162  170.4758 N.ar    1  UNL1       -0.2113
     18 C         140.4644  144.1440  170.0324 C.3     1  UNL1        0.1573
     19 C         143.4869  138.4927  165.9796 C.3     1  UNL1        0.0047
     20 C         142.9179  139.6540  165.2197 C.3     1  UNL1        0.0224
     21 C         143.2573  139.8407  163.7706 C.3     1  UNL1        0.0047
     22 C         140.1841  146.1639  162.0035 C.3     1  UNL1        0.0924
     23 C         140.0521  145.7173  160.5775 C.3     1  UNL1        0.0386
     24 C         140.6766  144.4273  160.1348 C.3     1  UNL1        0.0738
     25 N         139.8182  143.2197  159.9015 N.3     1  UNL1       -0.2726
     26 C         139.5259  142.7662  158.5018 C.3     1  UNL1        0.0721
     27 C         138.6674  141.5585  158.2686 C.3     1  UNL1        0.0174
     28 C         138.1011  140.8042  159.4350 C.3     1  UNL1        0.0031
     29 C         138.3934  141.2577  160.8346 C.3     1  UNL1        0.0204
     30 C         139.2519  142.4654  161.0678 C.3     1  UNL1        0.0724
     31 C         137.8271  140.5034  162.0010 C.3     1  UNL1        0.0277
     32 C         138.6644  139.4812  162.7108 C.ar    1  UNL1       -0.0220
     33 C         139.6427  138.6461  161.9391 C.ar    1  UNL1       -0.0020
     34 C         140.4800  137.6238  162.6491 C.ar    1  UNL1        0.0293
     35 C         140.3389  137.4366  164.1306 C.ar    1  UNL1        0.1401
     36 F         141.1762  136.4143  164.8406 F       1  UNL1       -0.2042
     37 C         139.3606  138.2717  164.9023 C.ar    1  UNL1        0.0293
     38 C         138.5233  139.2939  164.1924 C.ar    1  UNL1       -0.0020
@<TRIPOS>BOND
     1    19    20    1
     2    20    21    1
     3    20     7    1
     4     7     8   ar
     5     8     9   ar
     6     9     1    1
     7     1     2   am
     8     2     3    2
     9     2     4   am
    10     4    22    1
    11    22    23    1
    12    23    24    1
    13    24    25    1
    14    25    26    1
    15    26    27    1
    16    27    28    1
    17    28    29    1
    18    29    31    1
    19    31    32    1
    20    32    33   ar
    21    33    34   ar
    22    34    35   ar
    23    35    36    1
    24    35    37   ar
    25    37    38   ar
    26    29    30    1
    27     9    10   ar
    28    10    11   ar
    29    11    13    1
    30    13    14   ar
    31    14    15   ar
    32    15    16   ar
    33    16    17   ar
    34    17    18    1
    35    11    12   ar
    36    12     7   ar
    37    30    25    1
    38    17    13   ar
    39    38    32   ar
    40     1     5    1
    41     4     6    1
@<TRIPOS>MOLECULE
*****
 38 41 0 0 0
SMALL
GASTEIGER

@<TRIPOS>ATOM
      1 N         141.6690  140.1979  163.0893 N.am    1  UNL1       -0.2683
      2 C         140.5554  139.5901  162.2890 C.2     1  UNL1        0.3045
      3 O         139.1318  139.9602  162.5830 O.2     1  UNL1       -0.2525
      4 N         140.8654  138.6122  161.1946 N.am    1  UNL1       -0.2887
      5 H         142.6033  139.9551  162.8963 H       1  UNL1        0.1564
      6 H         141.7998  138.3694  161.0016 H       1  UNL1        0.1510
      7 C         140.1401  143.3165  165.0094 C.ar    1  UNL1       -0.0212
      8 C         140.4502  142.3387  163.9151 C.ar    1  UNL1        0.0104
      9 C         141.3589  141.1759  164.1837 C.ar    1  UNL1        0.0514
     10 C         141.9575  140.9909  165.5465 C.ar    1  UNL1        0.0178
     11 C         141.6474  141.9688  166.6408 C.ar    1  UNL1        0.0383
     12 C         140.7387  143.1316  166.3723 C.ar    1  UNL1       -0.0011
     13 C         142.2461  141.7839  168.0037 C.ar    1  UNL1        0.1839
     14 N         143.4682  142.4756  168.5311 N.ar    1  UNL1       -0.1081
     15 N         143.7052  141.9941  169.9319 N.ar    1  UNL1       -0.0227
     16 N         142.6295  141.0049  170.2701 N.ar    1  UNL1       -0.0429
     17 N         141.7277  140.8750  169.0785 N.ar    1  UNL1       -0.2113
     18 C         140.5198  139.9913  168.9791 C.3     1  UNL1        0.1573
     19 C         138.4197  145.0700  165.8555 C.3     1  UNL1        0.0047
     20 C         139.2314  144.4794  164.7409 C.3     1  UNL1        0.0224
     21 C         139.1343  145.0516  163.3577 C.3     1  UNL1        0.0047
     22 C         139.7518  138.0044  160.3943 C.3     1  UNL1        0.0924
     23 C         139.5761  138.3752  158.9515 C.3     1  UNL1        0.0386
     24 C         140.3624  139.5116  158.3681 C.3     1  UNL1        0.0738
     25 N         140.3575  140.8513  159.0427 N.3     1  UNL1       -0.2726
     26 C         139.0561  141.5165  159.3800 C.3     1  UNL1        0.0721
     27 C         139.0513  142.8562  160.0546 C.3     1  UNL1        0.0174
     28 C         140.3479  143.5307  160.3921 C.3     1  UNL1        0.0031
     29 C         141.6494  142.8654  160.0549 C.3     1  UNL1        0.0204
     30 C         141.6541  141.5257  159.3802 C.3     1  UNL1        0.0724
     31 C         142.9460  143.5398  160.3924 C.3     1  UNL1        0.0277
     32 C         143.4095  143.6036  161.8175 C.ar    1  UNL1       -0.0220
     33 C         142.9417  144.7152  162.7094 C.ar    1  UNL1       -0.0020
     34 C         143.4052  144.7789  164.1346 C.ar    1  UNL1        0.0293
     35 C         144.3366  143.7309  164.6679 C.ar    1  UNL1        0.1401
     36 F         144.8001  143.7946  166.0931 F       1  UNL1       -0.2042
     37 C         144.8044  142.6193  163.7760 C.ar    1  UNL1        0.0293
     38 C         144.3409  142.5556  162.3509 C.ar    1  UNL1       -0.0020
@<TRIPOS>BOND
     1    19    20    1
     2    20    21    1
     3    20     7    1
     4     7     8   ar
     5     8     9   ar
     6     9     1    1
     7     1     2   am
     8     2     3    2
     9     2     4   am
    10     4    22    1
    11    22    23    1
    12    23    24    1
    13    24    25    1
    14    25    26    1
    15    26    27    1
    16    27    28    1
    17    28    29    1
    18    29    31    1
    19    31    32    1
    20    32    33   ar
    21    33    34   ar
    22    34    35   ar
    23    35    36    1
    24    35    37   ar
    25    37    38   ar
    26    29    30    1
    27     9    10   ar
    28    10    11   ar
    29    11    13    1
    30    13    14   ar
    31    14    15   ar
    32    15    16   ar
    33    16    17   ar
    34    17    18    1
    35    11    12   ar
    36    12     7   ar
    37    30    25    1
    38    17    13   ar
    39    38    32   ar
    40     1     5    1
    41     4     6    1
