@<TRIPOS>MOLECULE
*****
 24 27 0 0 0
SMALL
GASTEIGER

@<TRIPOS>ATOM
      1 C         138.5824  139.3153  165.8671 C.ar    1  UNL1       -0.0207
      2 C         138.9407  138.0039  165.2334 C.ar    1  UNL1       -0.0027
      3 C         138.9719  137.8766  163.7392 C.ar    1  UNL1        0.0188
      4 C         138.6449  139.0609  162.8786 C.ar    1  UNL1        0.0813
      5 N         138.6762  138.9336  161.3843 N.ar    1  UNL1       -0.2422
      6 C         138.3492  140.1179  160.5237 C.ar    1  UNL1        0.1183
      7 C         137.9909  141.4294  161.1575 C.ar    1  UNL1        0.0223
      8 C         137.9596  141.5566  162.6517 C.ar    1  UNL1        0.0031
      9 C         138.2866  140.3724  163.5123 C.ar    1  UNL1        0.0174
     10 C         138.2554  140.4996  165.0065 C.ar    1  UNL1       -0.0027
     11 C         138.3805  139.9906  159.0295 C.ar    1  UNL1        0.1949
     12 C         139.5198  139.4551  158.2139 C.ar    1  UNL1        0.0710
     13 C         139.1214  139.5101  156.7688 C.ar    1  UNL1        0.1571
     14 BR        139.9610  139.0724  155.6054 Br      1  UNL1       -0.0245
     15 N         137.7358  140.0796  156.6913 N.ar    1  UNL1       -0.0701
     16 O         137.2779  140.3766  158.0885 O.2     1  UNL1       -0.3514
     17 C         138.5511  139.4426  167.3614 C.3     1  UNL1        0.0437
     18 C         139.8050  139.7811  168.1117 C.3     1  UNL1        0.0768
     19 C         140.9180  142.5109  166.7120 C.3     1  UNL1        0.0173
     20 C         140.4554  142.3738  168.1323 C.3     1  UNL1        0.0576
     21 C         140.4231  143.4673  169.1585 C.3     1  UNL1        0.0174
     22 C         139.8915  142.8884  170.4362 C.3     1  UNL1        0.0187
     23 C         139.5953  141.4370  170.1996 C.3     1  UNL1        0.0721
     24 N         139.9438  141.1191  168.7756 N.3     1  UNL1       -0.2737
@<TRIPOS>BOND
     1    20    19    1
     2    20    21    1
     3    21    22    1
     4    22    23    1
     5    23    24    1
     6    24    18    1
     7    18    17    1
     8    17     1    1
     9     1     2   ar
    10     2     3   ar
    11     3     4   ar
    12     4     5   ar
    13     5     6   ar
    14     6    11    1
    15    11    12   ar
    16    12    13   ar
    17    13    14    1
    18    13    15   ar
    19    15    16   ar
    20     6     7   ar
    21     7     8   ar
    22     8     9   ar
    23     9    10   ar
    24    24    20    1
    25    10     1   ar
    26     9     4   ar
    27    16    11   ar
@<TRIPOS>MOLECULE
*****
 24 27 0 0 0
SMALL
GASTEIGER

@<TRIPOS>ATOM
      1 C         142.1335  140.2097  167.1514 C.ar    1  UNL1       -0.0207
      2 C         140.8387  139.8398  166.4906 C.ar    1  UNL1       -0.0027
      3 C         140.3634  140.6050  165.2913 C.ar    1  UNL1        0.0188
      4 C         141.1828  141.7400  164.7526 C.ar    1  UNL1        0.0813
      5 N         140.7074  142.5051  163.5531 N.ar    1  UNL1       -0.2422
      6 C         141.5269  143.6402  163.0144 C.ar    1  UNL1        0.1183
      7 C         142.8218  144.0101  163.6752 C.ar    1  UNL1        0.0223
      8 C         143.2971  143.2449  164.8746 C.ar    1  UNL1        0.0031
      9 C         142.4776  142.1099  165.4133 C.ar    1  UNL1        0.0174
     10 C         142.9530  141.3448  166.6127 C.ar    1  UNL1       -0.0027
     11 C         141.0515  144.4053  161.8151 C.ar    1  UNL1        0.1949
     12 C         141.6625  144.3667  160.4456 C.ar    1  UNL1        0.0710
     13 C         140.8703  145.2809  159.5587 C.ar    1  UNL1        0.1571
     14 BR        141.1326  145.5452  158.1057 Br      1  UNL1       -0.0245
     15 N         139.7697  145.8845  160.3800 N.ar    1  UNL1       -0.0701
     16 O         139.8817  145.3433  161.7745 O.2     1  UNL1       -0.3514
     17 C         142.6089  139.4446  168.3508 C.3     1  UNL1        0.0437
     18 C         142.4023  140.0037  169.7273 C.3     1  UNL1        0.0768
     19 C         139.1756  140.4650  169.8845 C.3     1  UNL1        0.0173
     20 C         140.2245  141.5333  169.9775 C.3     1  UNL1        0.0576
     21 C         139.9744  143.0011  170.1590 C.3     1  UNL1        0.0174
     22 C         141.3031  143.6962  170.1990 C.3     1  UNL1        0.0187
     23 C         142.3743  142.6579  170.0421 C.3     1  UNL1        0.0721
     24 N         141.7076  141.3212  169.9052 N.3     1  UNL1       -0.2737
@<TRIPOS>BOND
     1    20    19    1
     2    20    21    1
     3    21    22    1
     4    22    23    1
     5    23    24    1
     6    24    18    1
     7    18    17    1
     8    17     1    1
     9     1     2   ar
    10     2     3   ar
    11     3     4   ar
    12     4     5   ar
    13     5     6   ar
    14     6    11    1
    15    11    12   ar
    16    12    13   ar
    17    13    14    1
    18    13    15   ar
    19    15    16   ar
    20     6     7   ar
    21     7     8   ar
    22     8     9   ar
    23     9    10   ar
    24    24    20    1
    25    10     1   ar
    26     9     4   ar
    27    16    11   ar
@<TRIPOS>MOLECULE
*****
 24 27 0 0 0
SMALL
GASTEIGER

@<TRIPOS>ATOM
      1 C         139.4046  137.6590  164.5390 C.ar    1  UNL1       -0.0207
      2 C         140.8902  137.5286  164.7003 C.ar    1  UNL1       -0.0027
      3 C         141.7905  137.6884  163.5112 C.ar    1  UNL1        0.0188
      4 C         141.2053  137.9787  162.1610 C.ar    1  UNL1        0.0813
      5 N         142.1057  138.1386  160.9719 N.ar    1  UNL1       -0.2422
      6 C         141.5204  138.4289  159.6217 C.ar    1  UNL1        0.1183
      7 C         140.0347  138.5594  159.4605 C.ar    1  UNL1        0.0223
      8 C         139.1344  138.3995  160.6495 C.ar    1  UNL1        0.0031
      9 C         139.7197  138.1092  161.9997 C.ar    1  UNL1        0.0174
     10 C         138.8194  137.9493  163.1888 C.ar    1  UNL1       -0.0027
     11 C         142.4207  138.5888  158.4326 C.ar    1  UNL1        0.1949
     12 C         142.8802  139.8894  157.8431 C.ar    1  UNL1        0.0710
     13 C         143.7631  139.5806  156.6705 C.ar    1  UNL1        0.1571
     14 BR        144.4408  140.5865  155.7880 Br      1  UNL1       -0.0245
     15 N         143.8493  138.0891  156.5353 N.ar    1  UNL1       -0.0701
     16 O         143.0197  137.4762  157.6243 O.2     1  UNL1       -0.3514
     17 C         138.5042  137.4991  165.7281 C.3     1  UNL1        0.0437
     18 C         138.0277  138.7088  166.4761 C.3     1  UNL1        0.0768
     19 C         138.3241  141.3106  164.5287 C.3     1  UNL1        0.0173
     20 C         139.0887  141.0661  165.7958 C.3     1  UNL1        0.0576
     21 C         140.1237  141.9746  166.3903 C.3     1  UNL1        0.0174
     22 C         140.6272  141.3401  167.6529 C.3     1  UNL1        0.0187
     23 C         139.9032  140.0395  167.8387 C.3     1  UNL1        0.0721
     24 N         138.9524  139.8702  166.6909 N.3     1  UNL1       -0.2737
@<TRIPOS>BOND
     1    20    19    1
     2    20    21    1
     3    21    22    1
     4    22    23    1
     5    23    24    1
     6    24    18    1
     7    18    17    1
     8    17     1    1
     9     1     2   ar
    10     2     3   ar
    11     3     4   ar
    12     4     5   ar
    13     5     6   ar
    14     6    11    1
    15    11    12   ar
    16    12    13   ar
    17    13    14    1
    18    13    15   ar
    19    15    16   ar
    20     6     7   ar
    21     7     8   ar
    22     8     9   ar
    23     9    10   ar
    24    24    20    1
    25    10     1   ar
    26     9     4   ar
    27    16    11   ar
@<TRIPOS>MOLECULE
*****
 24 27 0 0 0
SMALL
GASTEIGER

@<TRIPOS>ATOM
      1 C         143.0064  142.7186  165.5759 C.ar    1  UNL1       -0.0207
      2 C         144.2674  143.0458  164.8325 C.ar    1  UNL1       -0.0027
      3 C         144.1951  143.6006  163.4408 C.ar    1  UNL1        0.0188
      4 C         142.8617  143.8283  162.7925 C.ar    1  UNL1        0.0813
      5 N         142.7894  144.3831  161.4007 N.ar    1  UNL1       -0.2422
      6 C         141.4561  144.6107  160.7524 C.ar    1  UNL1        0.1183
      7 C         140.1950  144.2835  161.4959 C.ar    1  UNL1        0.0223
      8 C         140.2673  143.7287  162.8876 C.ar    1  UNL1        0.0031
      9 C         141.6007  143.5011  163.5359 C.ar    1  UNL1        0.0174
     10 C         141.6730  142.9463  164.9276 C.ar    1  UNL1       -0.0027
     11 C         141.3837  145.1656  159.3607 C.ar    1  UNL1        0.1949
     12 C         140.1355  145.5861  158.6429 C.ar    1  UNL1        0.0710
     13 C         140.5272  146.0777  157.2810 C.ar    1  UNL1        0.1571
     14 BR        139.5928  146.5951  156.2279 Br      1  UNL1       -0.0245
     15 N         142.0176  145.9610  157.1571 N.ar    1  UNL1       -0.0701
     16 O         142.5469  145.3973  158.4424 O.2     1  UNL1       -0.3514
     17 C         143.0787  142.1638  166.9677 C.3     1  UNL1        0.0437
     18 C         142.5979  140.7704  167.2455 C.3     1  UNL1        0.0768
     19 C         139.4307  140.4524  166.5264 C.3     1  UNL1        0.0173
     20 C         140.0331  140.3956  167.8989 C.3     1  UNL1        0.0576
     21 C         139.2856  140.1827  169.1818 C.3     1  UNL1        0.0174
     22 C         140.2794  140.1973  170.3053 C.3     1  UNL1        0.0187
     23 C         141.6412  140.4192  169.7167 C.3     1  UNL1        0.0721
     24 N         141.4889  140.5418  168.2295 N.3     1  UNL1       -0.2737
@<TRIPOS>BOND
     1    20    19    1
     2    20    21    1
     3    21    22    1
     4    22    23    1
     5    23    24    1
     6    24    18    1
     7    18    17    1
     8    17     1    1
     9     1     2   ar
    10     2     3   ar
    11     3     4   ar
    12     4     5   ar
    13     5     6   ar
    14     6    11    1
    15    11    12   ar
    16    12    13   ar
    17    13    14    1
    18    13    15   ar
    19    15    16   ar
    20     6     7   ar
    21     7     8   ar
    22     8     9   ar
    23     9    10   ar
    24    24    20    1
    25    10     1   ar
    26     9     4   ar
    27    16    11   ar
@<TRIPOS>MOLECULE
*****
 24 27 0 0 0
SMALL
GASTEIGER

@<TRIPOS>ATOM
      1 C         142.7627  142.6509  165.6181 C.ar    1  UNL1       -0.0207
      2 C         144.0402  143.0723  164.9546 C.ar    1  UNL1       -0.0027
      3 C         144.0112  143.6512  163.5712 C.ar    1  UNL1        0.0188
      4 C         142.7048  143.8086  162.8512 C.ar    1  UNL1        0.0813
      5 N         142.6759  144.3875  161.4676 N.ar    1  UNL1       -0.2422
      6 C         141.3694  144.5449  160.7477 C.ar    1  UNL1        0.1183
      7 C         140.0918  144.1234  161.4112 C.ar    1  UNL1        0.0223
      8 C         140.1208  143.5445  162.7947 C.ar    1  UNL1        0.0031
      9 C         141.4272  143.3871  163.5147 C.ar    1  UNL1        0.0174
     10 C         141.4562  142.8083  164.8982 C.ar    1  UNL1       -0.0027
     11 C         141.3404  145.1237  159.3642 C.ar    1  UNL1        0.1949
     12 C         140.1162  145.5670  158.6193 C.ar    1  UNL1        0.0710
     13 C         140.5498  146.0782  157.2774 C.ar    1  UNL1        0.1571
     14 BR        139.6493  146.6214  156.2078 Br      1  UNL1       -0.0245
     15 N         142.0420  145.9508  157.1930 N.ar    1  UNL1       -0.0701
     16 O         142.5306  145.3609  158.4826 O.2     1  UNL1       -0.3514
     17 C         142.7916  142.0720  167.0017 C.3     1  UNL1        0.0437
     18 C         142.5403  140.6076  167.2074 C.3     1  UNL1        0.0768
     19 C         139.8155  140.8620  168.9849 C.3     1  UNL1        0.0173
     20 C         139.9516  140.1370  167.6789 C.3     1  UNL1        0.0576
     21 C         138.8592  139.4016  166.9605 C.3     1  UNL1        0.0174
     22 C         139.4366  138.8302  165.6995 C.3     1  UNL1        0.0187
     23 C         140.8859  139.2124  165.6385 C.3     1  UNL1        0.0721
     24 N         141.2041  140.0200  166.8618 N.3     1  UNL1       -0.2737
@<TRIPOS>BOND
     1    20    19    1
     2    20    21    1
     3    21    22    1
     4    22    23    1
     5    23    24    1
     6    24    18    1
     7    18    17    1
     8    17     1    1
     9     1     2   ar
    10     2     3   ar
    11     3     4   ar
    12     4     5   ar
    13     5     6   ar
    14     6    11    1
    15    11    12   ar
    16    12    13   ar
    17    13    14    1
    18    13    15   ar
    19    15    16   ar
    20     6     7   ar
    21     7     8   ar
    22     8     9   ar
    23     9    10   ar
    24    24    20    1
    25    10     1   ar
    26     9     4   ar
    27    16    11   ar
@<TRIPOS>MOLECULE
*****
 24 27 0 0 0
SMALL
GASTEIGER

@<TRIPOS>ATOM
      1 C         140.5269  143.1673  165.9633 C.ar    1  UNL1       -0.0207
      2 C         139.3084  143.9137  165.5072 C.ar    1  UNL1       -0.0027
      3 C         139.2370  144.4490  164.1078 C.ar    1  UNL1        0.0188
      4 C         140.3840  144.2380  163.1646 C.ar    1  UNL1        0.0813
      5 N         140.3125  144.7734  161.7651 N.ar    1  UNL1       -0.2422
      6 C         141.4596  144.5623  160.8219 C.ar    1  UNL1        0.1183
      7 C         142.6782  143.8159  161.2781 C.ar    1  UNL1        0.0223
      8 C         142.7496  143.2805  162.6774 C.ar    1  UNL1        0.0031
      9 C         141.6025  143.4916  163.6207 C.ar    1  UNL1        0.0174
     10 C         141.6740  142.9562  165.0200 C.ar    1  UNL1       -0.0027
     11 C         141.3882  145.0977  159.4226 C.ar    1  UNL1        0.1949
     12 C         140.1615  145.6323  158.7446 C.ar    1  UNL1        0.0710
     13 C         140.5461  146.0575  157.3585 C.ar    1  UNL1        0.1571
     14 BR        139.6276  146.6504  156.3314 Br      1  UNL1       -0.0245
     15 N         142.0104  145.7856  157.1798 N.ar    1  UNL1       -0.0701
     16 O         142.5308  145.1925  158.4554 O.2     1  UNL1       -0.3514
     17 C         140.5984  142.6318  167.3627 C.3     1  UNL1        0.0437
     18 C         140.2118  141.2098  167.6423 C.3     1  UNL1        0.0768
     19 C         138.2303  139.7699  165.4860 C.3     1  UNL1        0.0173
     20 C         139.6845  139.4633  165.6886 C.3     1  UNL1        0.0576
     21 C         140.4833  138.4410  164.9356 C.3     1  UNL1        0.0174
     22 C         141.8879  138.4711  165.4614 C.3     1  UNL1        0.0187
     23 C         141.9571  139.5120  166.5394 C.3     1  UNL1        0.0721
     24 N         140.5953  140.1251  166.6797 N.3     1  UNL1       -0.2737
@<TRIPOS>BOND
     1    20    19    1
     2    20    21    1
     3    21    22    1
     4    22    23    1
     5    23    24    1
     6    24    18    1
     7    18    17    1
     8    17     1    1
     9     1     2   ar
    10     2     3   ar
    11     3     4   ar
    12     4     5   ar
    13     5     6   ar
    14     6    11    1
    15    11    12   ar
    16    12    13   ar
    17    13    14    1
    18    13    15   ar
    19    15    16   ar
    20     6     7   ar
    21     7     8   ar
    22     8     9   ar
    23     9    10   ar
    24    24    20    1
    25    10     1   ar
    26     9     4   ar
    27    16    11   ar
@<TRIPOS>MOLECULE
*****
 24 27 0 0 0
SMALL
GASTEIGER

@<TRIPOS>ATOM
      1 C         139.4581  140.5485  166.7876 C.ar    1  UNL1       -0.0207
      2 C         138.5005  140.1308  165.7113 C.ar    1  UNL1       -0.0027
      3 C         138.5278  140.8146  164.3766 C.ar    1  UNL1        0.0188
      4 C         139.5127  141.9161  164.1181 C.ar    1  UNL1        0.0813
      5 N         139.5400  142.5999  162.7833 N.ar    1  UNL1       -0.2422
      6 C         140.5248  143.7013  162.5248 C.ar    1  UNL1        0.1183
      7 C         141.4825  144.1190  163.6013 C.ar    1  UNL1        0.0223
      8 C         141.4552  143.4352  164.9360 C.ar    1  UNL1        0.0031
      9 C         140.4703  142.3337  165.1944 C.ar    1  UNL1        0.0174
     10 C         140.4430  141.6500  166.5292 C.ar    1  UNL1       -0.0027
     11 C         140.5521  144.3851  161.1901 C.ar    1  UNL1        0.1949
     12 C         141.6403  144.2724  160.1637 C.ar    1  UNL1        0.0710
     13 C         141.2567  145.1193  158.9866 C.ar    1  UNL1        0.1571
     14 BR        142.0577  145.2986  157.7311 Br      1  UNL1       -0.0245
     15 N         139.9316  145.7555  159.2855 N.ar    1  UNL1       -0.0701
     16 O         139.4961  145.3017  160.6473 O.2     1  UNL1       -0.3514
     17 C         139.4308  139.8647  168.1225 C.3     1  UNL1        0.0437
     18 C         139.6420  140.6596  169.3768 C.3     1  UNL1        0.0768
     19 C         142.5279  139.1376  169.4447 C.3     1  UNL1        0.0173
     20 C         142.2979  140.6020  169.6743 C.3     1  UNL1        0.0576
     21 C         143.3539  141.6238  169.9754 C.3     1  UNL1        0.0174
     22 C         142.6800  142.9550  170.1303 C.3     1  UNL1        0.0187
     23 C         141.2075  142.7558  169.9249 C.3     1  UNL1        0.0721
     24 N         140.9714  141.3016  169.6431 N.3     1  UNL1       -0.2737
@<TRIPOS>BOND
     1    20    19    1
     2    20    21    1
     3    21    22    1
     4    22    23    1
     5    23    24    1
     6    24    18    1
     7    18    17    1
     8    17     1    1
     9     1     2   ar
    10     2     3   ar
    11     3     4   ar
    12     4     5   ar
    13     5     6   ar
    14     6    11    1
    15    11    12   ar
    16    12    13   ar
    17    13    14    1
    18    13    15   ar
    19    15    16   ar
    20     6     7   ar
    21     7     8   ar
    22     8     9   ar
    23     9    10   ar
    24    24    20    1
    25    10     1   ar
    26     9     4   ar
    27    16    11   ar
@<TRIPOS>MOLECULE
*****
 24 27 0 0 0
SMALL
GASTEIGER

@<TRIPOS>ATOM
      1 C         142.6968  138.4920  165.2522 C.ar    1  UNL1       -0.0207
      2 C         141.5427  137.6038  164.8926 C.ar    1  UNL1       -0.0027
      3 C         141.2345  137.3209  163.4522 C.ar    1  UNL1        0.0188
      4 C         142.0803  137.9261  162.3713 C.ar    1  UNL1        0.0813
      5 N         141.7720  137.6431  160.9308 N.ar    1  UNL1       -0.2422
      6 C         142.6178  138.2483  159.8499 C.ar    1  UNL1        0.1183
      7 C         143.7719  139.1365  160.2095 C.ar    1  UNL1        0.0223
      8 C         144.0802  139.4194  161.6500 C.ar    1  UNL1        0.0031
      9 C         143.2344  138.8142  162.7308 C.ar    1  UNL1        0.0174
     10 C         143.5426  139.0972  164.1713 C.ar    1  UNL1       -0.0027
     11 C         142.3096  137.9653  158.4095 C.ar    1  UNL1        0.1949
     12 C         140.9495  137.9905  157.7774 C.ar    1  UNL1        0.0710
     13 C         141.1067  137.6483  156.3255 C.ar    1  UNL1        0.1571
     14 BR        140.0008  137.5585  155.3161 Br      1  UNL1       -0.0245
     15 N         142.5640  137.4115  156.0602 N.ar    1  UNL1       -0.0701
     16 O         143.3074  137.6074  157.3482 O.2     1  UNL1       -0.3514
     17 C         143.0051  138.7750  166.6927 C.3     1  UNL1        0.0437
     18 C         142.5873  140.0780  167.3071 C.3     1  UNL1        0.0768
     19 C         142.8902  139.9569  170.5540 C.3     1  UNL1        0.0173
     20 C         141.6022  140.0574  169.7919 C.3     1  UNL1        0.0576
     21 C         140.2274  140.1199  170.3884 C.3     1  UNL1        0.0174
     22 C         139.2383  140.2142  169.2645 C.3     1  UNL1        0.0187
     23 C         140.0021  140.2100  167.9734 C.3     1  UNL1        0.0721
     24 N         141.4630  140.1131  168.2994 N.3     1  UNL1       -0.2737
@<TRIPOS>BOND
     1    20    19    1
     2    20    21    1
     3    21    22    1
     4    22    23    1
     5    23    24    1
     6    24    18    1
     7    18    17    1
     8    17     1    1
     9     1     2   ar
    10     2     3   ar
    11     3     4   ar
    12     4     5   ar
    13     5     6   ar
    14     6    11    1
    15    11    12   ar
    16    12    13   ar
    17    13    14    1
    18    13    15   ar
    19    15    16   ar
    20     6     7   ar
    21     7     8   ar
    22     8     9   ar
    23     9    10   ar
    24    24    20    1
    25    10     1   ar
    26     9     4   ar
    27    16    11   ar
@<TRIPOS>MOLECULE
*****
 24 27 0 0 0
SMALL
GASTEIGER

@<TRIPOS>ATOM
      1 C         139.4320  137.7737  164.0491 C.ar    1  UNL1       -0.0207
      2 C         138.5560  137.9104  162.8392 C.ar    1  UNL1       -0.0027
      3 C         139.1668  138.1966  161.4995 C.ar    1  UNL1        0.0188
      4 C         140.6537  138.3461  161.3696 C.ar    1  UNL1        0.0813
      5 N         141.2645  138.6324  160.0298 N.ar    1  UNL1       -0.2422
      6 C         142.7513  138.7819  159.8999 C.ar    1  UNL1        0.1183
      7 C         143.6274  138.6452  161.1099 C.ar    1  UNL1        0.0223
      8 C         143.0166  138.3590  162.4496 C.ar    1  UNL1        0.0031
      9 C         141.5297  138.2095  162.5795 C.ar    1  UNL1        0.0174
     10 C         140.9189  137.9233  163.9192 C.ar    1  UNL1       -0.0027
     11 C         143.3622  139.0681  158.5602 C.ar    1  UNL1        0.1949
     12 C         144.0599  140.3348  158.1617 C.ar    1  UNL1        0.0710
     13 C         144.5115  140.1874  156.7389 C.ar    1  UNL1        0.1571
     14 BR        145.2518  141.2170  155.9377 Br      1  UNL1       -0.0245
     15 N         144.0928  138.8296  156.2580 N.ar    1  UNL1       -0.0701
     16 O         143.3825  138.1379  157.3836 O.2     1  UNL1       -0.3514
     17 C         138.8212  137.4875  165.3889 C.3     1  UNL1        0.0437
     18 C         138.2357  138.6049  166.2004 C.3     1  UNL1        0.0768
     19 C         140.4460  139.9937  168.1587 C.3     1  UNL1        0.0173
     20 C         139.7984  140.6337  166.9667 C.3     1  UNL1        0.0576
     21 C         140.0530  142.0244  166.4656 C.3     1  UNL1        0.0174
     22 C         139.1944  142.2456  165.2556 C.3     1  UNL1        0.0187
     23 C         138.4091  140.9915  165.0090 C.3     1  UNL1        0.0721
     24 N         138.7825  139.9954  166.0666 N.3     1  UNL1       -0.2737
@<TRIPOS>BOND
     1    20    19    1
     2    20    21    1
     3    21    22    1
     4    22    23    1
     5    23    24    1
     6    24    18    1
     7    18    17    1
     8    17     1    1
     9     1     2   ar
    10     2     3   ar
    11     3     4   ar
    12     4     5   ar
    13     5     6   ar
    14     6    11    1
    15    11    12   ar
    16    12    13   ar
    17    13    14    1
    18    13    15   ar
    19    15    16   ar
    20     6     7   ar
    21     7     8   ar
    22     8     9   ar
    23     9    10   ar
    24    24    20    1
    25    10     1   ar
    26     9     4   ar
    27    16    11   ar
