@<TRIPOS>MOLECULE
*****
 29 33 0 0 0
SMALL
GASTEIGER

@<TRIPOS>ATOM
      1 C         139.6007  141.0173  166.3344 C.ar    1  UNL1        0.0834
      2 C         140.0973  142.1893  165.5408 C.ar    1  UNL1        0.0273
      3 C         139.8136  142.2737  164.0703 C.ar    1  UNL1        0.0528
      4 S         140.1716  143.2997  163.0363 S.2     1  UNL1       -0.0514
      5 C         139.6126  142.8462  161.7203 C.ar    1  UNL1        0.1631
      6 N         138.9090  141.5400  161.9410 N.ar    1  UNL1       -0.2225
      7 C         139.0333  141.1861  163.3934 C.ar    1  UNL1        0.1084
      8 C         138.5367  140.0141  164.1870 C.ar    1  UNL1        0.1184
      9 N         138.8204  139.9297  165.6574 N.ar    1  UNL1       -0.2422
     10 O         140.7355  140.6795  172.2164 O.3     1  UNL1       -0.4919
     11 C         140.4518  140.7640  170.7459 C.ar    1  UNL1        0.2216
     12 C         141.1229  141.8146  169.9118 C.ar    1  UNL1        0.0576
     13 C         140.8392  141.8991  168.4412 C.ar    1  UNL1        0.0078
     14 C         139.8845  140.9329  167.8049 C.ar    1  UNL1        0.0370
     15 C         139.2134  139.8822  168.6391 C.ar    1  UNL1        0.1035
     16 N         139.4971  139.7977  170.1095 N.ar    1  UNL1       -0.2102
     17 H         141.3319  141.2830  172.6139 H       1  UNL1        0.2937
     18 N         139.7355  143.5716  160.4132 N.pl3   1  UNL1       -0.2881
     19 C         140.3375  144.9448  160.3712 C.3     1  UNL1        0.0940
     20 C         140.4604  145.6702  159.0640 C.3     1  UNL1        0.0375
     21 C         139.9813  145.0224  157.7988 C.3     1  UNL1        0.0609
     22 C         139.3792  143.6492  157.8408 C.3     1  UNL1        0.0375
     23 C         139.2563  142.9238  159.1480 C.3     1  UNL1        0.0940
     24 N         140.1042  145.7478  156.4917 N.3     1  UNL1       -0.2738
     25 C         141.0072  145.2139  155.4196 C.3     1  UNL1        0.0720
     26 C         141.1301  145.9393  154.1124 C.3     1  UNL1        0.0174
     27 C         140.3500  147.1986  153.8773 C.3     1  UNL1        0.0029
     28 C         139.4469  147.7326  154.9494 C.3     1  UNL1        0.0174
     29 C         139.3240  147.0072  156.2565 C.3     1  UNL1        0.0720
@<TRIPOS>BOND
     1    10    11    1
     2    11    12   ar
     3    12    13   ar
     4    13    14   ar
     5    14     1    1
     6     1     2   ar
     7     2     3   ar
     8     3     4   ar
     9     4     5   ar
    10     5    18    1
    11    18    19    1
    12    19    20    1
    13    20    21    1
    14    21    24    1
    15    24    25    1
    16    25    26    1
    17    26    27    1
    18    27    28    1
    19    28    29    1
    20    21    22    1
    21    22    23    1
    22     5     6   ar
    23     6     7   ar
    24     7     8   ar
    25     8     9   ar
    26    14    15   ar
    27    15    16   ar
    28    16    11   ar
    29     9     1   ar
    30     7     3   ar
    31    23    18    1
    32    29    24    1
    33    10    17    1
@<TRIPOS>MOLECULE
*****
 29 33 0 0 0
SMALL
GASTEIGER

@<TRIPOS>ATOM
      1 C         141.7979  141.7918  166.8278 C.ar    1  UNL1        0.0834
      2 C         140.9072  141.9923  165.6377 C.ar    1  UNL1        0.0273
      3 C         141.4429  142.6550  164.4032 C.ar    1  UNL1        0.0528
      4 S         140.8072  142.9861  163.0855 S.2     1  UNL1       -0.0514
      5 C         141.8406  143.6529  162.2268 C.ar    1  UNL1        0.1631
      6 N         143.1150  143.7338  163.0137 N.ar    1  UNL1       -0.2225
      7 C         142.8692  143.1171  164.3588 C.ar    1  UNL1        0.1084
      8 C         143.7599  142.9166  165.5489 C.ar    1  UNL1        0.1184
      9 N         143.2243  142.2540  166.7834 N.ar    1  UNL1       -0.2422
     10 O         139.6554  139.1413  171.7658 O.3     1  UNL1       -0.4919
     11 C         140.1910  139.8039  170.5314 C.ar    1  UNL1        0.2216
     12 C         141.5547  140.4285  170.5470 C.ar    1  UNL1        0.0576
     13 C         142.0903  141.0912  169.3125 C.ar    1  UNL1        0.0078
     14 C         141.2623  141.1292  168.0623 C.ar    1  UNL1        0.0370
     15 C         139.8986  140.5045  168.0467 C.ar    1  UNL1        0.1035
     16 N         139.3630  139.8419  169.2811 N.ar    1  UNL1       -0.2102
     17 H         140.1726  139.1175  172.5468 H       1  UNL1        0.2937
     18 N         141.6356  144.1512  160.8269 N.pl3   1  UNL1       -0.2881
     19 C         142.5225  143.6638  159.7199 C.3     1  UNL1        0.0940
     20 C         142.3175  144.1621  158.3200 C.3     1  UNL1        0.0375
     21 C         141.2256  145.1479  158.0272 C.3     1  UNL1        0.0609
     22 C         140.3386  145.6353  159.1342 C.3     1  UNL1        0.0375
     23 C         140.5436  145.1370  160.5341 C.3     1  UNL1        0.0940
     24 N         141.0205  145.6462  156.6273 N.3     1  UNL1       -0.2738
     25 C         139.9303  146.6341  156.3350 C.3     1  UNL1        0.0720
     26 C         139.7253  147.1324  154.9351 C.3     1  UNL1        0.0174
     27 C         140.6105  146.6429  153.8276 C.3     1  UNL1        0.0029
     28 C         141.7008  145.6551  154.1199 C.3     1  UNL1        0.0174
     29 C         141.9058  145.1568  155.5198 C.3     1  UNL1        0.0720
@<TRIPOS>BOND
     1    10    11    1
     2    11    12   ar
     3    12    13   ar
     4    13    14   ar
     5    14     1    1
     6     1     2   ar
     7     2     3   ar
     8     3     4   ar
     9     4     5   ar
    10     5    18    1
    11    18    19    1
    12    19    20    1
    13    20    21    1
    14    21    24    1
    15    24    25    1
    16    25    26    1
    17    26    27    1
    18    27    28    1
    19    28    29    1
    20    21    22    1
    21    22    23    1
    22     5     6   ar
    23     6     7   ar
    24     7     8   ar
    25     8     9   ar
    26    14    15   ar
    27    15    16   ar
    28    16    11   ar
    29     9     1   ar
    30     7     3   ar
    31    23    18    1
    32    29    24    1
    33    10    17    1
@<TRIPOS>MOLECULE
*****
 29 33 0 0 0
SMALL
GASTEIGER

@<TRIPOS>ATOM
      1 C         140.2994  141.8561  166.2239 C.ar    1  UNL1        0.0834
      2 C         140.7177  140.5961  165.5259 C.ar    1  UNL1        0.0273
      3 C         140.7004  140.5276  164.0276 C.ar    1  UNL1        0.0528
      4 S         141.0552  139.4299  163.0688 S.2     1  UNL1       -0.0514
      5 C         140.8390  139.9430  161.6760 C.ar    1  UNL1        0.1631
      6 N         140.3505  141.3579  161.7740 N.ar    1  UNL1       -0.2225
      7 C         140.2648  141.7192  163.2273 C.ar    1  UNL1        0.1084
      8 C         139.8465  142.9792  163.9253 C.ar    1  UNL1        0.1184
      9 N         139.8638  143.0477  165.4236 N.ar    1  UNL1       -0.2422
     10 O         140.3684  142.1301  172.2173 O.3     1  UNL1       -0.4919
     11 C         140.3511  142.0616  170.7190 C.ar    1  UNL1        0.2216
     12 C         140.3791  143.3245  169.9101 C.ar    1  UNL1        0.0576
     13 C         140.3618  143.2560  168.4117 C.ar    1  UNL1        0.0078
     14 C         140.3166  141.9246  167.7223 C.ar    1  UNL1        0.0370
     15 C         140.2887  140.6617  168.5312 C.ar    1  UNL1        0.1035
     16 N         140.3059  140.7302  170.0295 N.ar    1  UNL1       -0.2102
     17 H         140.3966  142.9618  172.6480 H       1  UNL1        0.2937
     18 N         141.0705  139.1760  160.4079 N.pl3   1  UNL1       -0.2881
     19 C         139.9525  138.9990  159.4237 C.3     1  UNL1        0.0940
     20 C         140.1841  138.2320  158.1556 C.3     1  UNL1        0.0375
     21 C         141.5336  137.6419  157.8718 C.3     1  UNL1        0.0609
     22 C         142.6516  137.8190  158.8560 C.3     1  UNL1        0.0375
     23 C         142.4200  138.5860  160.1241 C.3     1  UNL1        0.0940
     24 N         141.7652  136.8749  156.6037 N.3     1  UNL1       -0.2738
     25 C         143.1033  136.2515  156.3379 C.3     1  UNL1        0.0720
     26 C         143.3349  135.4845  155.0698 C.3     1  UNL1        0.0174
     27 C         142.2283  135.3409  154.0675 C.3     1  UNL1        0.0029
     28 C         140.8901  135.9643  154.3332 C.3     1  UNL1        0.0174
     29 C         140.6586  136.7313  155.6013 C.3     1  UNL1        0.0720
@<TRIPOS>BOND
     1    10    11    1
     2    11    12   ar
     3    12    13   ar
     4    13    14   ar
     5    14     1    1
     6     1     2   ar
     7     2     3   ar
     8     3     4   ar
     9     4     5   ar
    10     5    18    1
    11    18    19    1
    12    19    20    1
    13    20    21    1
    14    21    24    1
    15    24    25    1
    16    25    26    1
    17    26    27    1
    18    27    28    1
    19    28    29    1
    20    21    22    1
    21    22    23    1
    22     5     6   ar
    23     6     7   ar
    24     7     8   ar
    25     8     9   ar
    26    14    15   ar
    27    15    16   ar
    28    16    11   ar
    29     9     1   ar
    30     7     3   ar
    31    23    18    1
    32    29    24    1
    33    10    17    1
@<TRIPOS>MOLECULE
*****
 29 33 0 0 0
SMALL
GASTEIGER

@<TRIPOS>ATOM
      1 C         140.2879  139.8960  166.8782 C.ar    1  UNL1        0.0834
      2 C         141.1784  140.0360  165.6793 C.ar    1  UNL1        0.0273
      3 C         140.7570  139.4588  164.3606 C.ar    1  UNL1        0.0528
      4 S         141.4200  139.4403  163.0152 S.2     1  UNL1       -0.0514
      5 C         140.5179  138.7117  162.0638 C.ar    1  UNL1        0.1631
      6 N         139.2973  138.2798  162.8212 N.ar    1  UNL1       -0.2225
      7 C         139.4451  138.7415  164.2407 C.ar    1  UNL1        0.1084
      8 C         138.5546  138.6014  165.4395 C.ar    1  UNL1        0.1184
      9 N         138.9759  139.1787  166.7583 N.ar    1  UNL1       -0.2422
     10 O         141.9732  142.2050  172.1535 O.3     1  UNL1       -0.4919
     11 C         141.5519  141.6278  170.8347 C.ar    1  UNL1        0.2216
     12 C         142.5761  141.3580  169.7725 C.ar    1  UNL1        0.0576
     13 C         142.1547  140.7807  168.4537 C.ar    1  UNL1        0.0078
     14 C         140.7092  140.4733  168.1971 C.ar    1  UNL1        0.0370
     15 C         139.6850  140.7431  169.2592 C.ar    1  UNL1        0.1035
     16 N         140.1063  141.3203  170.5780 N.ar    1  UNL1       -0.2102
     17 H         142.8762  142.3971  172.3138 H       1  UNL1        0.2937
     18 N         140.7887  138.4592  160.6102 N.pl3   1  UNL1       -0.2881
     19 C         142.1765  138.1189  160.1539 C.3     1  UNL1        0.0940
     20 C         142.4474  137.8665  158.7004 C.3     1  UNL1        0.0375
     21 C         141.3305  137.9544  157.7030 C.3     1  UNL1        0.0609
     22 C         139.9427  138.2947  158.1593 C.3     1  UNL1        0.0375
     23 C         139.6718  138.5471  159.6128 C.3     1  UNL1        0.0940
     24 N         141.6013  137.7019  156.2494 N.3     1  UNL1       -0.2738
     25 C         142.1705  136.3855  155.8102 C.3     1  UNL1        0.0720
     26 C         142.4414  136.1331  154.3566 C.3     1  UNL1        0.0174
     27 C         142.1431  137.1971  153.3423 C.3     1  UNL1        0.0029
     28 C         141.5739  138.5135  153.7815 C.3     1  UNL1        0.0174
     29 C         141.3030  138.7659  155.2351 C.3     1  UNL1        0.0720
@<TRIPOS>BOND
     1    10    11    1
     2    11    12   ar
     3    12    13   ar
     4    13    14   ar
     5    14     1    1
     6     1     2   ar
     7     2     3   ar
     8     3     4   ar
     9     4     5   ar
    10     5    18    1
    11    18    19    1
    12    19    20    1
    13    20    21    1
    14    21    24    1
    15    24    25    1
    16    25    26    1
    17    26    27    1
    18    27    28    1
    19    28    29    1
    20    21    22    1
    21    22    23    1
    22     5     6   ar
    23     6     7   ar
    24     7     8   ar
    25     8     9   ar
    26    14    15   ar
    27    15    16   ar
    28    16    11   ar
    29     9     1   ar
    30     7     3   ar
    31    23    18    1
    32    29    24    1
    33    10    17    1
@<TRIPOS>MOLECULE
*****
 29 33 0 0 0
SMALL
GASTEIGER

@<TRIPOS>ATOM
      1 C         139.7513  140.7595  166.9401 C.ar    1  UNL1        0.0834
      2 C         140.0050  141.6103  165.7311 C.ar    1  UNL1        0.0273
      3 C         139.4115  141.2286  164.4075 C.ar    1  UNL1        0.0528
      4 S         139.4867  141.8670  163.0522 S.2     1  UNL1       -0.0514
      5 C         138.6860  141.0291  162.1000 C.ar    1  UNL1        0.1631
      6 N         138.1160  139.8727  162.8668 N.ar    1  UNL1       -0.2225
      7 C         138.5644  139.9960  164.2929 C.ar    1  UNL1        0.1084
      8 C         138.3107  139.1452  165.5019 C.ar    1  UNL1        0.1184
      9 N         138.9042  139.5269  166.8255 N.ar    1  UNL1       -0.2422
     10 O         142.1253  142.2864  172.2348 O.3     1  UNL1       -0.4919
     11 C         141.5318  141.9047  170.9111 C.ar    1  UNL1        0.2216
     12 C         140.9910  140.5212  170.7027 C.ar    1  UNL1        0.0576
     13 C         140.3975  140.1395  169.3790 C.ar    1  UNL1        0.0078
     14 C         140.3448  141.1412  168.2638 C.ar    1  UNL1        0.0370
     15 C         140.8856  142.5247  168.4723 C.ar    1  UNL1        0.1035
     16 N         141.4791  142.9065  169.7959 N.ar    1  UNL1       -0.2102
     17 H         142.1582  141.6607  172.9314 H       1  UNL1        0.2937
     18 N         138.4899  141.2999  160.6377 N.pl3   1  UNL1       -0.2881
     19 C         137.9306  140.2317  159.7456 C.3     1  UNL1        0.0940
     20 C         137.7344  140.5025  158.2833 C.3     1  UNL1        0.0375
     21 C         138.0975  141.8416  157.7133 C.3     1  UNL1        0.0609
     22 C         138.6568  142.9098  158.6054 C.3     1  UNL1        0.0375
     23 C         138.8529  142.6390  160.0677 C.3     1  UNL1        0.0940
     24 N         137.9013  142.1124  156.2510 N.3     1  UNL1       -0.2738
     25 C         138.6646  141.3190  155.2323 C.3     1  UNL1        0.0720
     26 C         138.4684  141.5899  153.7700 C.3     1  UNL1        0.0174
     27 C         137.5089  142.6541  153.3265 C.3     1  UNL1        0.0029
     28 C         136.7456  143.4474  154.3452 C.3     1  UNL1        0.0174
     29 C         136.9417  143.1766  155.8075 C.3     1  UNL1        0.0720
@<TRIPOS>BOND
     1    10    11    1
     2    11    12   ar
     3    12    13   ar
     4    13    14   ar
     5    14     1    1
     6     1     2   ar
     7     2     3   ar
     8     3     4   ar
     9     4     5   ar
    10     5    18    1
    11    18    19    1
    12    19    20    1
    13    20    21    1
    14    21    24    1
    15    24    25    1
    16    25    26    1
    17    26    27    1
    18    27    28    1
    19    28    29    1
    20    21    22    1
    21    22    23    1
    22     5     6   ar
    23     6     7   ar
    24     7     8   ar
    25     8     9   ar
    26    14    15   ar
    27    15    16   ar
    28    16    11   ar
    29     9     1   ar
    30     7     3   ar
    31    23    18    1
    32    29    24    1
    33    10    17    1
@<TRIPOS>MOLECULE
*****
 29 33 0 0 0
SMALL
GASTEIGER

@<TRIPOS>ATOM
      1 C         140.8723  140.1806  166.1121 C.ar    1  UNL1        0.0834
      2 C         142.0722  140.7015  165.3779 C.ar    1  UNL1        0.0273
      3 C         142.1233  140.6326  163.8804 C.ar    1  UNL1        0.0528
      4 S         143.1652  141.0630  162.8909 S.2     1  UNL1       -0.0514
      5 C         142.6605  140.7392  161.5159 C.ar    1  UNL1        0.1631
      6 N         141.3067  140.1086  161.6557 N.ar    1  UNL1       -0.2225
      7 C         140.9747  140.0427  163.1171 C.ar    1  UNL1        0.1084
      8 C         139.7749  139.5218  163.8512 C.ar    1  UNL1        0.1184
      9 N         139.7237  139.5908  165.3487 N.ar    1  UNL1       -0.2422
     10 O         140.6675  140.4563  172.1023 O.3     1  UNL1       -0.4919
     11 C         140.7187  140.3874  170.6048 C.ar    1  UNL1        0.2216
     12 C         139.4464  140.3192  169.8132 C.ar    1  UNL1        0.0576
     13 C         139.4976  140.2503  168.3156 C.ar    1  UNL1        0.0078
     14 C         140.8211  140.2495  167.6097 C.ar    1  UNL1        0.0370
     15 C         142.0934  140.3177  168.4013 C.ar    1  UNL1        0.1035
     16 N         142.0422  140.3866  169.8988 N.ar    1  UNL1       -0.2102
     17 H         139.8408  140.4568  172.5433 H       1  UNL1        0.2937
     18 N         143.3828  141.0002  160.2274 N.pl3   1  UNL1       -0.2881
     19 C         144.1661  142.2670  160.0500 C.3     1  UNL1        0.0940
     20 C         144.8884  142.5279  158.7615 C.3     1  UNL1        0.0375
     21 C         144.8274  141.5220  157.6505 C.3     1  UNL1        0.0609
     22 C         144.0441  140.2552  157.8279 C.3     1  UNL1        0.0375
     23 C         143.3218  139.9943  159.1164 C.3     1  UNL1        0.0940
     24 N         145.5497  141.7830  156.3620 N.3     1  UNL1       -0.2738
     25 C         146.9463  142.3299  156.3825 C.3     1  UNL1        0.0720
     26 C         147.6686  142.5909  155.0940 C.3     1  UNL1        0.0174
     27 C         146.9943  142.3049  153.7850 C.3     1  UNL1        0.0029
     28 C         145.5977  141.7580  153.7645 C.3     1  UNL1        0.0174
     29 C         144.8755  141.4970  155.0530 C.3     1  UNL1        0.0720
@<TRIPOS>BOND
     1    10    11    1
     2    11    12   ar
     3    12    13   ar
     4    13    14   ar
     5    14     1    1
     6     1     2   ar
     7     2     3   ar
     8     3     4   ar
     9     4     5   ar
    10     5    18    1
    11    18    19    1
    12    19    20    1
    13    20    21    1
    14    21    24    1
    15    24    25    1
    16    25    26    1
    17    26    27    1
    18    27    28    1
    19    28    29    1
    20    21    22    1
    21    22    23    1
    22     5     6   ar
    23     6     7   ar
    24     7     8   ar
    25     8     9   ar
    26    14    15   ar
    27    15    16   ar
    28    16    11   ar
    29     9     1   ar
    30     7     3   ar
    31    23    18    1
    32    29    24    1
    33    10    17    1
@<TRIPOS>MOLECULE
*****
 29 33 0 0 0
SMALL
GASTEIGER

@<TRIPOS>ATOM
      1 C         139.9606  145.1349  157.3506 C.ar    1  UNL1        0.0834
      2 C         140.3936  145.6173  158.7033 C.ar    1  UNL1        0.0273
      3 C         140.4122  144.6705  159.8666 C.ar    1  UNL1        0.0528
      4 S         140.7882  144.8571  161.3066 S.2     1  UNL1       -0.0514
      5 C         140.6062  143.5434  162.0073 C.ar    1  UNL1        0.1631
      6 N         140.1176  142.5448  161.0002 N.ar    1  UNL1       -0.2225
      7 C         139.9977  143.2414  159.6772 C.ar    1  UNL1        0.1084
      8 C         139.5646  142.7591  158.3245 C.ar    1  UNL1        0.1184
      9 N         139.5461  143.7058  157.1612 N.ar    1  UNL1       -0.2422
     10 O         139.8863  148.9218  152.6972 O.3     1  UNL1       -0.4919
     11 C         139.9048  147.9751  153.8605 C.ar    1  UNL1        0.2216
     12 C         139.1044  148.2833  155.0911 C.ar    1  UNL1        0.0576
     13 C         139.1230  147.3366  156.2545 C.ar    1  UNL1        0.0078
     14 C         139.9420  146.0817  156.1872 C.ar    1  UNL1        0.0370
     15 C         140.7424  145.7735  154.9566 C.ar    1  UNL1        0.1035
     16 N         140.7238  146.7202  153.7933 N.ar    1  UNL1       -0.2102
     17 H         139.3747  149.7057  152.7392 H       1  UNL1        0.2937
     18 N         140.8669  143.2752  163.4599 N.pl3   1  UNL1       -0.2881
     19 C         142.2241  142.8185  163.9065 C.3     1  UNL1        0.0940
     20 C         142.4848  142.5504  165.3591 C.3     1  UNL1        0.0375
     21 C         141.3884  142.7390  166.3651 C.3     1  UNL1        0.0609
     22 C         140.0312  143.1956  165.9186 C.3     1  UNL1        0.0375
     23 C         139.7705  143.4638  164.4660 C.3     1  UNL1        0.0940
     24 N         141.6491  142.4708  167.8178 N.3     1  UNL1       -0.2738
     25 C         140.5171  142.5028  168.8013 C.3     1  UNL1        0.0720
     26 C         140.7778  142.2346  170.2539 C.3     1  UNL1        0.0174
     27 C         142.1706  141.9346  170.7230 C.3     1  UNL1        0.0029
     28 C         143.3027  141.9027  169.7395 C.3     1  UNL1        0.0174
     29 C         143.0419  142.1708  168.2869 C.3     1  UNL1        0.0720
@<TRIPOS>BOND
     1    10    11    1
     2    11    12   ar
     3    12    13   ar
     4    13    14   ar
     5    14     1    1
     6     1     2   ar
     7     2     3   ar
     8     3     4   ar
     9     4     5   ar
    10     5    18    1
    11    18    19    1
    12    19    20    1
    13    20    21    1
    14    21    24    1
    15    24    25    1
    16    25    26    1
    17    26    27    1
    18    27    28    1
    19    28    29    1
    20    21    22    1
    21    22    23    1
    22     5     6   ar
    23     6     7   ar
    24     7     8   ar
    25     8     9   ar
    26    14    15   ar
    27    15    16   ar
    28    16    11   ar
    29     9     1   ar
    30     7     3   ar
    31    23    18    1
    32    29    24    1
    33    10    17    1
@<TRIPOS>MOLECULE
*****
 29 33 0 0 0
SMALL
GASTEIGER

@<TRIPOS>ATOM
      1 C         140.6090  141.2942  166.8208 C.ar    1  UNL1        0.0834
      2 C         141.0254  141.5642  165.4053 C.ar    1  UNL1        0.0273
      3 C         140.3186  140.8810  164.2723 C.ar    1  UNL1        0.0528
      4 S         140.5062  140.9487  162.7856 S.2     1  UNL1       -0.0514
      5 C         139.4990  140.0372  162.1493 C.ar    1  UNL1        0.1631
      6 N         138.6889  139.4063  163.2428 N.ar    1  UNL1       -0.2225
      7 C         139.1955  139.9277  164.5549 C.ar    1  UNL1        0.1084
      8 C         138.7791  139.6577  165.9704 C.ar    1  UNL1        0.1184
      9 N         139.4859  140.3409  167.1033 N.ar    1  UNL1       -0.2422
     10 O         143.4362  144.0272  171.3527 O.3     1  UNL1       -0.4919
     11 C         142.7294  143.3439  170.2198 C.ar    1  UNL1        0.2216
     12 C         141.2417  143.4725  170.0773 C.ar    1  UNL1        0.0576
     13 C         140.5349  142.7893  168.9443 C.ar    1  UNL1        0.0078
     14 C         141.3158  141.9775  167.9538 C.ar    1  UNL1        0.0370
     15 C         142.8035  141.8489  168.0962 C.ar    1  UNL1        0.1035
     16 N         143.5103  142.5321  169.2292 N.ar    1  UNL1       -0.2102
     17 H         142.9484  144.5343  171.9715 H       1  UNL1        0.2937
     18 N         139.3313  139.7987  160.6780 N.pl3   1  UNL1       -0.2881
     19 C         138.4745  140.7203  159.8616 C.3     1  UNL1        0.0940
     20 C         138.3069  140.4817  158.3902 C.3     1  UNL1        0.0375
     21 C         138.9959  139.3215  157.7352 C.3     1  UNL1        0.0609
     22 C         139.8527  138.3999  158.5516 C.3     1  UNL1        0.0375
     23 C         140.0204  138.6384  160.0230 C.3     1  UNL1        0.0940
     24 N         138.8282  139.0829  156.2638 N.3     1  UNL1       -0.2738
     25 C         138.2447  140.1549  155.3919 C.3     1  UNL1        0.0720
     26 C         138.0770  139.9163  153.9205 C.3     1  UNL1        0.0174
     27 C         138.4929  138.6058  153.3211 C.3     1  UNL1        0.0029
     28 C         139.0764  137.5338  154.1930 C.3     1  UNL1        0.0174
     29 C         139.2441  137.7724  155.6643 C.3     1  UNL1        0.0720
@<TRIPOS>BOND
     1    10    11    1
     2    11    12   ar
     3    12    13   ar
     4    13    14   ar
     5    14     1    1
     6     1     2   ar
     7     2     3   ar
     8     3     4   ar
     9     4     5   ar
    10     5    18    1
    11    18    19    1
    12    19    20    1
    13    20    21    1
    14    21    24    1
    15    24    25    1
    16    25    26    1
    17    26    27    1
    18    27    28    1
    19    28    29    1
    20    21    22    1
    21    22    23    1
    22     5     6   ar
    23     6     7   ar
    24     7     8   ar
    25     8     9   ar
    26    14    15   ar
    27    15    16   ar
    28    16    11   ar
    29     9     1   ar
    30     7     3   ar
    31    23    18    1
    32    29    24    1
    33    10    17    1
@<TRIPOS>MOLECULE
*****
 29 33 0 0 0
SMALL
GASTEIGER

@<TRIPOS>ATOM
      1 C         140.0723  140.0011  161.9252 C.ar    1  UNL1        0.0834
      2 C         141.5590  140.0150  161.7270 C.ar    1  UNL1        0.0273
      3 C         142.1375  140.4800  160.4236 C.ar    1  UNL1        0.0528
      4 S         143.5522  140.6036  159.9405 S.2     1  UNL1       -0.0514
      5 C         143.5184  141.1311  158.5367 C.ar    1  UNL1        0.1631
      6 N         142.0827  141.3336  158.1522 N.ar    1  UNL1       -0.2225
      7 C         141.2293  140.9312  159.3183 C.ar    1  UNL1        0.1084
      8 C         139.7425  140.9173  159.5165 C.ar    1  UNL1        0.1184
      9 N         139.1640  140.4523  160.8200 N.ar    1  UNL1       -0.2422
     10 O         137.7579  138.1411  167.1391 O.3     1  UNL1       -0.4919
     11 C         138.3365  138.6061  165.8357 C.ar    1  UNL1        0.2216
     12 C         139.1335  137.6589  164.9884 C.ar    1  UNL1        0.0576
     13 C         139.7120  138.1240  163.6849 C.ar    1  UNL1        0.0078
     14 C         139.4937  139.5361  163.2287 C.ar    1  UNL1        0.0370
     15 C         138.6967  140.4832  164.0760 C.ar    1  UNL1        0.1035
     16 N         138.1181  140.0183  165.3794 N.ar    1  UNL1       -0.2102
     17 H         137.8943  137.2590  167.4241 H       1  UNL1        0.2937
     18 N         144.7108  141.4076  157.6697 N.pl3   1  UNL1       -0.2881
     19 C         145.6652  142.5057  158.0349 C.3     1  UNL1        0.0940
     20 C         146.8576  142.7822  157.1679 C.3     1  UNL1        0.0375
     21 C         147.0956  141.9606  155.9357 C.3     1  UNL1        0.0609
     22 C         146.1413  140.8625  155.5706 C.3     1  UNL1        0.0375
     23 C         144.9488  140.5860  156.4376 C.3     1  UNL1        0.0940
     24 N         148.2880  142.2371  155.0687 N.3     1  UNL1       -0.2738
     25 C         149.6005  141.5740  155.3648 C.3     1  UNL1        0.0720
     26 C         150.7929  141.8505  154.4978 C.3     1  UNL1        0.0174
     27 C         150.6729  142.7901  153.3347 C.3     1  UNL1        0.0029
     28 C         149.3604  143.4531  153.0387 C.3     1  UNL1        0.0174
     29 C         148.1680  143.1766  153.9057 C.3     1  UNL1        0.0720
@<TRIPOS>BOND
     1    10    11    1
     2    11    12   ar
     3    12    13   ar
     4    13    14   ar
     5    14     1    1
     6     1     2   ar
     7     2     3   ar
     8     3     4   ar
     9     4     5   ar
    10     5    18    1
    11    18    19    1
    12    19    20    1
    13    20    21    1
    14    21    24    1
    15    24    25    1
    16    25    26    1
    17    26    27    1
    18    27    28    1
    19    28    29    1
    20    21    22    1
    21    22    23    1
    22     5     6   ar
    23     6     7   ar
    24     7     8   ar
    25     8     9   ar
    26    14    15   ar
    27    15    16   ar
    28    16    11   ar
    29     9     1   ar
    30     7     3   ar
    31    23    18    1
    32    29    24    1
    33    10    17    1
