@<TRIPOS>MOLECULE
*****
 32 36 0 0 0
SMALL
GASTEIGER

@<TRIPOS>ATOM
      1 O         144.2300  138.0388  161.1623 O.2     1  UNL1       -0.2734
      2 C         142.8826  138.2187  160.5280 C.2     1  UNL1        0.2420
      3 C         142.6852  137.8846  159.0791 C.3     1  UNL1        0.1587
      4 N         141.3378  138.0644  158.4448 N.3     1  UNL1       -0.2632
      5 C         140.1879  138.5785  159.2594 C.3     1  UNL1        0.0942
      6 C         140.3855  138.9126  160.7084 C.3     1  UNL1        0.1107
      7 N         141.7328  138.7328  161.3426 N.am    1  UNL1       -0.2783
      8 C         141.9304  139.0669  162.7916 C.3     1  UNL1        0.0801
      9 C         141.7375  138.0098  163.8381 C.3     1  UNL1        0.0248
     10 C         141.9350  138.3440  165.2870 C.3     1  UNL1        0.0277
     11 C         142.3254  139.7353  165.6893 C.ar    1  UNL1       -0.0263
     12 C         142.5230  140.0695  167.1383 C.ar    1  UNL1       -0.0070
     13 C         142.9134  141.4608  167.5406 C.ar    1  UNL1        0.0001
     14 C         143.1063  142.5179  166.4940 C.ar    1  UNL1       -0.0027
     15 C         142.9088  142.1837  165.0451 C.ar    1  UNL1       -0.0048
     16 C         142.5183  140.7924  164.6428 C.ar    1  UNL1       -0.0245
     17 C         142.3208  140.4582  163.1939 C.3     1  UNL1        0.0458
     18 C         143.1110  141.7949  168.9895 C.3     1  UNL1        0.1343
     19 N         141.9256  142.0954  169.8583 N.ar    1  UNL1       -0.3036
     20 C         140.7414  142.9327  169.4754 C.ar    1  UNL1        0.0983
     21 C         139.8004  142.9661  170.6429 C.ar    1  UNL1        0.1193
     22 N         140.4029  142.1494  171.7475 N.ar    1  UNL1       -0.2223
     23 C         141.7165  141.6113  171.2625 C.ar    1  UNL1        0.1789
     24 C         141.1403  137.7303  156.9959 C.3     1  UNL1        0.0773
     25 C         142.2207  137.0192  156.2363 C.3     1  UNL1        0.0437
     26 C         142.2694  135.5200  156.2279 C.ar    1  UNL1       -0.0206
     27 C         143.1961  134.7945  157.1579 C.ar    1  UNL1       -0.0019
     28 C         143.2448  133.2954  157.1495 C.ar    1  UNL1        0.0293
     29 C         142.3667  132.5217  156.2111 C.ar    1  UNL1        0.1401
     30 F         142.4154  131.0224  156.2028 F       1  UNL1       -0.2042
     31 C         141.4400  133.2472  155.2812 C.ar    1  UNL1        0.0293
     32 C         141.3913  134.7463  155.2896 C.ar    1  UNL1       -0.0019
@<TRIPOS>BOND
     1     1     2    2
     2     2     3    1
     3     3     4    1
     4     4    24    1
     5    24    25    1
     6    25    26    1
     7    26    27   ar
     8    27    28   ar
     9    28    29   ar
    10    29    30    1
    11    29    31   ar
    12    31    32   ar
    13     4     5    1
    14     5     6    1
    15     6     7    1
    16     8     7    1
    17     8     9    1
    18     9    10    1
    19    10    11    1
    20    11    12   ar
    21    12    13   ar
    22    13    18    1
    23    18    19    1
    24    19    20   ar
    25    20    21   ar
    26    21    22   ar
    27    22    23   ar
    28    13    14   ar
    29    14    15   ar
    30    15    16   ar
    31    16    17    1
    32     7     2   am
    33    17     8    1
    34    32    26   ar
    35    16    11   ar
    36    23    19   ar
@<TRIPOS>MOLECULE
*****
 32 36 0 0 0
SMALL
GASTEIGER

@<TRIPOS>ATOM
      1 O         140.2837  145.7861  161.4313 O.2     1  UNL1       -0.2734
      2 C         141.0908  145.1491  160.3390 C.2     1  UNL1        0.2420
      3 C         140.8607  145.5423  158.9099 C.3     1  UNL1        0.1587
      4 N         141.6678  144.9053  157.8176 N.3     1  UNL1       -0.2632
      5 C         142.7048  143.8753  158.1545 C.3     1  UNL1        0.0942
      6 C         142.9349  143.4822  159.5837 C.3     1  UNL1        0.1107
      7 N         142.1278  144.1191  160.6760 N.am    1  UNL1       -0.2783
      8 C         142.3578  143.7260  162.1052 C.3     1  UNL1        0.0801
      9 C         143.3958  144.4379  162.9211 C.3     1  UNL1        0.0248
     10 C         143.6258  144.0447  164.3502 C.3     1  UNL1        0.0277
     11 C         142.8178  142.9397  164.9635 C.ar    1  UNL1       -0.0263
     12 C         143.0478  142.5466  166.3927 C.ar    1  UNL1       -0.0070
     13 C         142.2398  141.4416  167.0060 C.ar    1  UNL1        0.0001
     14 C         141.2017  140.7298  166.1900 C.ar    1  UNL1       -0.0027
     15 C         140.9718  141.1229  164.7608 C.ar    1  UNL1       -0.0048
     16 C         141.7798  142.2279  164.1476 C.ar    1  UNL1       -0.0245
     17 C         141.5498  142.6210  162.7184 C.3     1  UNL1        0.0458
     18 C         142.4697  141.0485  168.4351 C.3     1  UNL1        0.1343
     19 N         141.5953  141.6093  169.5173 N.ar    1  UNL1       -0.3036
     20 C         140.4158  142.5142  169.3175 C.ar    1  UNL1        0.0983
     21 C         139.8385  142.8278  170.6659 C.ar    1  UNL1        0.1193
     22 N         140.6612  142.1167  171.6992 N.ar    1  UNL1       -0.2223
     23 C         141.7470  141.3636  170.9892 C.ar    1  UNL1        0.1789
     24 C         141.4377  145.2984  156.3884 C.3     1  UNL1        0.0773
     25 C         140.0532  145.6280  155.9148 C.3     1  UNL1        0.0437
     26 C         139.6542  147.0581  155.7008 C.ar    1  UNL1       -0.0206
     27 C         140.0222  147.7565  154.4254 C.ar    1  UNL1       -0.0019
     28 C         139.6232  149.1865  154.2114 C.ar    1  UNL1        0.0293
     29 C         138.8563  149.9181  155.2729 C.ar    1  UNL1        0.1401
     30 F         138.4573  151.3482  155.0588 F       1  UNL1       -0.2042
     31 C         138.4883  149.2196  156.5483 C.ar    1  UNL1        0.0293
     32 C         138.8873  147.7896  156.7622 C.ar    1  UNL1       -0.0019
@<TRIPOS>BOND
     1     1     2    2
     2     2     3    1
     3     3     4    1
     4     4    24    1
     5    24    25    1
     6    25    26    1
     7    26    27   ar
     8    27    28   ar
     9    28    29   ar
    10    29    30    1
    11    29    31   ar
    12    31    32   ar
    13     4     5    1
    14     5     6    1
    15     6     7    1
    16     8     7    1
    17     8     9    1
    18     9    10    1
    19    10    11    1
    20    11    12   ar
    21    12    13   ar
    22    13    18    1
    23    18    19    1
    24    19    20   ar
    25    20    21   ar
    26    21    22   ar
    27    22    23   ar
    28    13    14   ar
    29    14    15   ar
    30    15    16   ar
    31    16    17    1
    32     7     2   am
    33    17     8    1
    34    32    26   ar
    35    16    11   ar
    36    23    19   ar
@<TRIPOS>MOLECULE
*****
 32 36 0 0 0
SMALL
GASTEIGER

@<TRIPOS>ATOM
      1 O         139.0790  139.5520  161.4092 O.2     1  UNL1       -0.2734
      2 C         140.2437  139.1883  160.5365 C.2     1  UNL1        0.2420
      3 C         140.0098  138.5264  159.2110 C.3     1  UNL1        0.1587
      4 N         141.1744  138.1627  158.3383 N.3     1  UNL1       -0.2632
      5 C         142.5729  138.4610  158.7913 C.3     1  UNL1        0.0942
      6 C         142.8068  139.1230  160.1170 C.3     1  UNL1        0.1107
      7 N         141.6422  139.4866  160.9895 N.am    1  UNL1       -0.2783
      8 C         141.8760  140.1486  162.3151 C.3     1  UNL1        0.0801
      9 C         141.9003  141.6452  162.4122 C.3     1  UNL1        0.0248
     10 C         142.1341  142.3071  163.7378 C.3     1  UNL1        0.0277
     11 C         142.3438  141.4723  164.9663 C.ar    1  UNL1       -0.0263
     12 C         142.5776  142.1343  166.2919 C.ar    1  UNL1       -0.0070
     13 C         142.7872  141.2995  167.5204 C.ar    1  UNL1        0.0001
     14 C         142.7630  139.8028  167.4233 C.ar    1  UNL1       -0.0027
     15 C         142.5291  139.1409  166.0977 C.ar    1  UNL1       -0.0048
     16 C         142.3195  139.9757  164.8692 C.ar    1  UNL1       -0.0245
     17 C         142.0857  139.3138  163.5436 C.3     1  UNL1        0.0458
     18 C         143.0211  141.9614  168.8460 C.3     1  UNL1        0.1343
     19 N         141.8711  142.1976  169.7797 N.ar    1  UNL1       -0.3036
     20 C         140.6193  142.9603  169.4614 C.ar    1  UNL1        0.0983
     21 C         139.7455  142.9465  170.6806 C.ar    1  UNL1        0.1193
     22 N         140.4573  142.1753  171.7524 N.ar    1  UNL1       -0.2223
     23 C         141.7710  141.7124  171.1955 C.ar    1  UNL1        0.1789
     24 C         140.9405  137.5008  157.0128 C.3     1  UNL1        0.0773
     25 C         142.0834  136.8604  156.2823 C.3     1  UNL1        0.0437
     26 C         142.2287  135.3674  156.2783 C.ar    1  UNL1       -0.0206
     27 C         143.2121  134.7072  157.1986 C.ar    1  UNL1       -0.0019
     28 C         143.3573  133.2142  157.1946 C.ar    1  UNL1        0.0293
     29 C         142.5192  132.3816  156.2703 C.ar    1  UNL1        0.1401
     30 F         142.6645  130.8886  156.2663 F       1  UNL1       -0.2042
     31 C         141.5358  133.0419  155.3500 C.ar    1  UNL1        0.0293
     32 C         141.3906  134.5348  155.3540 C.ar    1  UNL1       -0.0019
@<TRIPOS>BOND
     1     1     2    2
     2     2     3    1
     3     3     4    1
     4     4    24    1
     5    24    25    1
     6    25    26    1
     7    26    27   ar
     8    27    28   ar
     9    28    29   ar
    10    29    30    1
    11    29    31   ar
    12    31    32   ar
    13     4     5    1
    14     5     6    1
    15     6     7    1
    16     8     7    1
    17     8     9    1
    18     9    10    1
    19    10    11    1
    20    11    12   ar
    21    12    13   ar
    22    13    18    1
    23    18    19    1
    24    19    20   ar
    25    20    21   ar
    26    21    22   ar
    27    22    23   ar
    28    13    14   ar
    29    14    15   ar
    30    15    16   ar
    31    16    17    1
    32     7     2   am
    33    17     8    1
    34    32    26   ar
    35    16    11   ar
    36    23    19   ar
@<TRIPOS>MOLECULE
*****
 32 36 0 0 0
SMALL
GASTEIGER

@<TRIPOS>ATOM
      1 O         138.4834  138.9119  160.2148 O.2     1  UNL1       -0.2734
      2 C         139.8525  138.5508  159.7193 C.2     1  UNL1        0.2420
      3 C         140.0804  138.3056  158.2572 C.3     1  UNL1        0.1587
      4 N         141.4494  137.9445  157.7617 N.3     1  UNL1       -0.2632
      5 C         142.5905  137.8286  158.7284 C.3     1  UNL1        0.0942
      6 C         142.3625  138.0738  160.1906 C.3     1  UNL1        0.1107
      7 N         140.9935  138.4349  160.6861 N.am    1  UNL1       -0.2783
      8 C         140.7656  138.6801  162.1483 C.3     1  UNL1        0.0801
      9 C         140.4720  137.5297  163.0649 C.3     1  UNL1        0.0248
     10 C         140.2441  137.7749  164.5270 C.3     1  UNL1        0.0277
     11 C         140.3097  139.1707  165.0725 C.ar    1  UNL1       -0.0263
     12 C         140.0817  139.4159  166.5347 C.ar    1  UNL1       -0.0070
     13 C         140.1473  140.8117  167.0802 C.ar    1  UNL1        0.0001
     14 C         140.4409  141.9622  166.1635 C.ar    1  UNL1       -0.0027
     15 C         140.6688  141.7169  164.7014 C.ar    1  UNL1       -0.0048
     16 C         140.6032  140.3212  164.1559 C.ar    1  UNL1       -0.0245
     17 C         140.8312  140.0759  162.6938 C.3     1  UNL1        0.0458
     18 C         139.9194  141.0569  168.5423 C.3     1  UNL1        0.1343
     19 N         140.8064  142.0073  169.2907 N.ar    1  UNL1       -0.3036
     20 C         142.2164  141.7395  169.7268 C.ar    1  UNL1        0.0983
     21 C         142.7206  142.9590  170.4399 C.ar    1  UNL1        0.1193
     22 N         141.6222  143.9806  170.4445 N.ar    1  UNL1       -0.2223
     23 C         140.4391  143.3924  169.7342 C.ar    1  UNL1        0.1789
     24 C         141.6773  137.6993  156.2996 C.3     1  UNL1        0.0773
     25 C         142.7999  136.8095  155.8544 C.3     1  UNL1        0.0437
     26 C         142.6784  135.3211  155.9957 C.ar    1  UNL1       -0.0206
     27 C         141.6767  134.5687  155.1708 C.ar    1  UNL1       -0.0019
     28 C         141.5553  133.0804  155.3121 C.ar    1  UNL1        0.0293
     29 C         142.4356  132.3444  156.2783 C.ar    1  UNL1        0.1401
     30 F         142.3141  130.8560  156.4196 F       1  UNL1       -0.2042
     31 C         143.4373  133.0968  157.1032 C.ar    1  UNL1        0.0293
     32 C         143.5587  134.5852  156.9619 C.ar    1  UNL1       -0.0019
@<TRIPOS>BOND
     1     1     2    2
     2     2     3    1
     3     3     4    1
     4     4    24    1
     5    24    25    1
     6    25    26    1
     7    26    27   ar
     8    27    28   ar
     9    28    29   ar
    10    29    30    1
    11    29    31   ar
    12    31    32   ar
    13     4     5    1
    14     5     6    1
    15     6     7    1
    16     8     7    1
    17     8     9    1
    18     9    10    1
    19    10    11    1
    20    11    12   ar
    21    12    13   ar
    22    13    18    1
    23    18    19    1
    24    19    20   ar
    25    20    21   ar
    26    21    22   ar
    27    22    23   ar
    28    13    14   ar
    29    14    15   ar
    30    15    16   ar
    31    16    17    1
    32     7     2   am
    33    17     8    1
    34    32    26   ar
    35    16    11   ar
    36    23    19   ar
@<TRIPOS>MOLECULE
*****
 32 36 0 0 0
SMALL
GASTEIGER

@<TRIPOS>ATOM
      1 O         141.6633  137.3398  161.7157 O.2     1  UNL1       -0.2734
      2 C         142.3095  138.2085  160.6775 C.2     1  UNL1        0.2420
      3 C         142.4639  137.7088  159.2717 C.3     1  UNL1        0.1587
      4 N         143.1101  138.5776  158.2335 N.3     1  UNL1       -0.2632
      5 C         143.6019  139.9461  158.6013 C.3     1  UNL1        0.0942
      6 C         143.4475  140.4459  160.0072 C.3     1  UNL1        0.1107
      7 N         142.8013  139.5771  161.0452 N.am    1  UNL1       -0.2783
      8 C         142.6468  140.0769  162.4511 C.3     1  UNL1        0.0801
      9 C         143.6787  139.7372  163.4855 C.3     1  UNL1        0.0248
     10 C         143.5242  140.2369  164.8913 C.3     1  UNL1        0.0277
     11 C         142.3379  141.0764  165.2627 C.ar    1  UNL1       -0.0263
     12 C         142.1835  141.5761  166.6686 C.ar    1  UNL1       -0.0070
     13 C         140.9972  142.4156  167.0401 C.ar    1  UNL1        0.0001
     14 C         139.9653  142.7553  166.0057 C.ar    1  UNL1       -0.0027
     15 C         140.1198  142.2555  164.5999 C.ar    1  UNL1       -0.0048
     16 C         141.3061  141.4161  164.2284 C.ar    1  UNL1       -0.0245
     17 C         141.4605  140.9163  162.8226 C.3     1  UNL1        0.0458
     18 C         140.8427  142.9153  168.4459 C.3     1  UNL1        0.1343
     19 N         140.6274  141.9434  169.5681 N.ar    1  UNL1       -0.3036
     20 C         139.9592  140.6049  169.4591 C.ar    1  UNL1        0.0983
     21 C         139.9613  139.9737  170.8198 C.ar    1  UNL1        0.1193
     22 N         140.6308  140.9221  171.7698 N.ar    1  UNL1       -0.2223
     23 C         141.0425  142.1395  170.9961 C.ar    1  UNL1        0.1789
     24 C         143.2645  138.0778  156.8277 C.3     1  UNL1        0.0773
     25 C         142.1545  137.3037  156.1808 C.3     1  UNL1        0.0437
     26 C         142.2026  135.8047  156.1530 C.ar    1  UNL1       -0.0206
     27 C         143.1890  135.0698  157.0115 C.ar    1  UNL1       -0.0019
     28 C         143.2370  133.5709  156.9836 C.ar    1  UNL1        0.0293
     29 C         142.2987  132.8068  156.0972 C.ar    1  UNL1        0.1401
     30 F         142.3468  131.3078  156.0694 F       1  UNL1       -0.2042
     31 C         141.3123  133.5416  155.2387 C.ar    1  UNL1        0.0293
     32 C         141.2642  135.0405  155.2666 C.ar    1  UNL1       -0.0019
@<TRIPOS>BOND
     1     1     2    2
     2     2     3    1
     3     3     4    1
     4     4    24    1
     5    24    25    1
     6    25    26    1
     7    26    27   ar
     8    27    28   ar
     9    28    29   ar
    10    29    30    1
    11    29    31   ar
    12    31    32   ar
    13     4     5    1
    14     5     6    1
    15     6     7    1
    16     8     7    1
    17     8     9    1
    18     9    10    1
    19    10    11    1
    20    11    12   ar
    21    12    13   ar
    22    13    18    1
    23    18    19    1
    24    19    20   ar
    25    20    21   ar
    26    21    22   ar
    27    22    23   ar
    28    13    14   ar
    29    14    15   ar
    30    15    16   ar
    31    16    17    1
    32     7     2   am
    33    17     8    1
    34    32    26   ar
    35    16    11   ar
    36    23    19   ar
@<TRIPOS>MOLECULE
*****
 32 36 0 0 0
SMALL
GASTEIGER

@<TRIPOS>ATOM
      1 O         143.7094  138.2154  161.6092 O.2     1  UNL1       -0.2734
      2 C         142.5757  138.3679  160.6389 C.2     1  UNL1        0.2420
      3 C         142.7674  137.9997  159.1975 C.3     1  UNL1        0.1587
      4 N         141.6337  138.1522  158.2272 N.3     1  UNL1       -0.2632
      5 C         140.3082  138.6729  158.6984 C.3     1  UNL1        0.0942
      6 C         140.1165  139.0411  160.1398 C.3     1  UNL1        0.1107
      7 N         141.2502  138.8886  161.1101 N.am    1  UNL1       -0.2783
      8 C         141.0585  139.2568  162.5515 C.3     1  UNL1        0.0801
      9 C         142.0335  140.1747  163.2272 C.3     1  UNL1        0.0248
     10 C         141.8418  140.5429  164.6686 C.3     1  UNL1        0.0277
     11 C         140.6750  139.9931  165.4343 C.ar    1  UNL1       -0.0263
     12 C         140.4832  140.3614  166.8758 C.ar    1  UNL1       -0.0070
     13 C         139.3164  139.8116  167.6415 C.ar    1  UNL1        0.0001
     14 C         138.3413  138.8936  166.9657 C.ar    1  UNL1       -0.0027
     15 C         138.5331  138.5255  165.5243 C.ar    1  UNL1       -0.0048
     16 C         139.6999  139.0752  164.7586 C.ar    1  UNL1       -0.0245
     17 C         139.8917  138.7070  163.3172 C.3     1  UNL1        0.0458
     18 C         139.1247  140.1798  169.0828 C.3     1  UNL1        0.1343
     19 N         140.1061  141.0886  169.7618 N.ar    1  UNL1       -0.3036
     20 C         141.2942  140.6575  170.5695 C.ar    1  UNL1        0.0983
     21 C         141.9941  141.8906  171.0591 C.ar    1  UNL1        0.1193
     22 N         141.2384  143.0839  170.5539 N.ar    1  UNL1       -0.2223
     23 C         140.0715  142.5882  169.7521 C.ar    1  UNL1        0.1789
     24 C         141.8254  137.7840  156.7859 C.3     1  UNL1        0.0773
     25 C         141.1892  136.5409  156.2383 C.3     1  UNL1        0.0437
     26 C         142.0119  135.3025  156.0392 C.ar    1  UNL1       -0.0206
     27 C         141.6780  134.3507  154.9290 C.ar    1  UNL1       -0.0019
     28 C         142.5006  133.1123  154.7299 C.ar    1  UNL1        0.0293
     29 C         143.6573  132.8258  155.6411 C.ar    1  UNL1        0.1401
     30 F         144.4800  131.5874  155.4419 F       1  UNL1       -0.2042
     31 C         143.9912  133.7776  156.7513 C.ar    1  UNL1        0.0293
     32 C         143.1685  135.0159  156.9503 C.ar    1  UNL1       -0.0019
@<TRIPOS>BOND
     1     1     2    2
     2     2     3    1
     3     3     4    1
     4     4    24    1
     5    24    25    1
     6    25    26    1
     7    26    27   ar
     8    27    28   ar
     9    28    29   ar
    10    29    30    1
    11    29    31   ar
    12    31    32   ar
    13     4     5    1
    14     5     6    1
    15     6     7    1
    16     8     7    1
    17     8     9    1
    18     9    10    1
    19    10    11    1
    20    11    12   ar
    21    12    13   ar
    22    13    18    1
    23    18    19    1
    24    19    20   ar
    25    20    21   ar
    26    21    22   ar
    27    22    23   ar
    28    13    14   ar
    29    14    15   ar
    30    15    16   ar
    31    16    17    1
    32     7     2   am
    33    17     8    1
    34    32    26   ar
    35    16    11   ar
    36    23    19   ar
@<TRIPOS>MOLECULE
*****
 32 36 0 0 0
SMALL
GASTEIGER

@<TRIPOS>ATOM
      1 O         144.1267  141.4645  160.4914 O.2     1  UNL1       -0.2734
      2 C         143.6693  140.1865  159.8529 C.2     1  UNL1        0.2420
      3 C         143.6909  140.0445  158.3599 C.3     1  UNL1        0.1587
      4 N         143.2335  138.7665  157.7214 N.3     1  UNL1       -0.2632
      5 C         142.7545  137.6306  158.5760 C.3     1  UNL1        0.0942
      6 C         142.7330  137.7728  160.0691 C.3     1  UNL1        0.1107
      7 N         143.1904  139.0507  160.7076 N.am    1  UNL1       -0.2783
      8 C         143.1688  139.1928  162.2007 C.3     1  UNL1        0.0801
      9 C         144.4558  139.2140  162.9708 C.3     1  UNL1        0.0248
     10 C         144.4342  139.3562  164.4638 C.3     1  UNL1        0.0277
     11 C         143.1256  139.4771  165.1869 C.ar    1  UNL1       -0.0263
     12 C         143.1040  139.6192  166.6800 C.ar    1  UNL1       -0.0070
     13 C         141.7953  139.7401  167.4030 C.ar    1  UNL1        0.0001
     14 C         140.5082  139.7189  166.6329 C.ar    1  UNL1       -0.0027
     15 C         140.5299  139.5767  165.1399 C.ar    1  UNL1       -0.0048
     16 C         141.8385  139.4558  164.4168 C.ar    1  UNL1       -0.0245
     17 C         141.8601  139.3137  162.9238 C.3     1  UNL1        0.0458
     18 C         141.7737  139.8822  168.8961 C.3     1  UNL1        0.1343
     19 N         140.8946  140.9139  169.5387 N.ar    1  UNL1       -0.3036
     20 C         141.2238  142.3666  169.7149 C.ar    1  UNL1        0.0983
     21 C         140.0646  143.0245  170.4029 C.ar    1  UNL1        0.1193
     22 N         139.0189  141.9782  170.6520 N.ar    1  UNL1       -0.2223
     23 C         139.5319  140.6737  170.1178 C.ar    1  UNL1        0.1789
     24 C         143.2551  138.6244  156.2283 C.3     1  UNL1        0.0773
     25 C         143.9227  137.4386  155.5974 C.3     1  UNL1        0.0437
     26 C         143.2075  136.1216  155.5327 C.ar    1  UNL1       -0.0206
     27 C         142.0264  135.9534  154.6235 C.ar    1  UNL1       -0.0019
     28 C         141.3113  134.6365  154.5588 C.ar    1  UNL1        0.0293
     29 C         141.7773  133.4877  155.4034 C.ar    1  UNL1        0.1401
     30 F         141.0621  132.1708  155.3387 F       1  UNL1       -0.2042
     31 C         142.9584  133.6559  156.3125 C.ar    1  UNL1        0.0293
     32 C         143.6735  134.9729  156.3772 C.ar    1  UNL1       -0.0019
@<TRIPOS>BOND
     1     1     2    2
     2     2     3    1
     3     3     4    1
     4     4    24    1
     5    24    25    1
     6    25    26    1
     7    26    27   ar
     8    27    28   ar
     9    28    29   ar
    10    29    30    1
    11    29    31   ar
    12    31    32   ar
    13     4     5    1
    14     5     6    1
    15     6     7    1
    16     8     7    1
    17     8     9    1
    18     9    10    1
    19    10    11    1
    20    11    12   ar
    21    12    13   ar
    22    13    18    1
    23    18    19    1
    24    19    20   ar
    25    20    21   ar
    26    21    22   ar
    27    22    23   ar
    28    13    14   ar
    29    14    15   ar
    30    15    16   ar
    31    16    17    1
    32     7     2   am
    33    17     8    1
    34    32    26   ar
    35    16    11   ar
    36    23    19   ar
@<TRIPOS>MOLECULE
*****
 32 36 0 0 0
SMALL
GASTEIGER

@<TRIPOS>ATOM
      1 O         140.9614  145.5603  161.0674 O.2     1  UNL1       -0.2734
      2 C         140.2686  144.7005  160.0521 C.2     1  UNL1        0.2420
      3 C         140.2470  145.1124  158.6099 C.3     1  UNL1        0.1587
      4 N         139.5543  144.2525  157.5946 N.3     1  UNL1       -0.2632
      5 C         138.8831  142.9808  158.0215 C.3     1  UNL1        0.0942
      6 C         138.9048  142.5689  159.4638 C.3     1  UNL1        0.1107
      7 N         139.5975  143.4287  160.4790 N.am    1  UNL1       -0.2783
      8 C         139.6191  143.0169  161.9212 C.3     1  UNL1        0.0801
      9 C         138.5820  143.5447  162.8676 C.3     1  UNL1        0.0248
     10 C         138.6036  143.1328  164.3097 C.3     1  UNL1        0.0277
     11 C         139.6624  142.1931  164.8055 C.ar    1  UNL1       -0.0263
     12 C         139.6841  141.7813  166.2478 C.ar    1  UNL1       -0.0070
     13 C         140.7429  140.8415  166.7436 C.ar    1  UNL1        0.0001
     14 C         141.7801  140.3137  165.7971 C.ar    1  UNL1       -0.0027
     15 C         141.7584  140.7256  164.3550 C.ar    1  UNL1       -0.0048
     16 C         140.6996  141.6653  163.8592 C.ar    1  UNL1       -0.0245
     17 C         140.6779  142.0772  162.4170 C.3     1  UNL1        0.0458
     18 C         140.7646  140.4297  168.1857 C.3     1  UNL1        0.1343
     19 N         141.3586  141.3422  169.2175 N.ar    1  UNL1       -0.3036
     20 C         142.5437  142.2408  169.0223 C.ar    1  UNL1        0.0983
     21 C         142.7893  142.9702  170.3098 C.ar    1  UNL1        0.1193
     22 N         141.7561  142.5224  171.3007 N.ar    1  UNL1       -0.2223
     23 C         140.8718  141.5161  170.6256 C.ar    1  UNL1        0.1789
     24 C         139.5327  144.6644  156.1525 C.3     1  UNL1        0.0773
     25 C         140.4207  145.7755  155.6765 C.3     1  UNL1        0.0437
     26 C         139.8762  147.1671  155.5454 C.ar    1  UNL1       -0.0206
     27 C         140.1987  147.9874  154.3318 C.ar    1  UNL1       -0.0019
     28 C         139.6541  149.3789  154.2007 C.ar    1  UNL1        0.0293
     29 C         138.7871  149.9501  155.2834 C.ar    1  UNL1        0.1401
     30 F         138.2425  151.3416  155.1523 F       1  UNL1       -0.2042
     31 C         138.4646  149.1297  156.4970 C.ar    1  UNL1        0.0293
     32 C         139.0092  147.7382  156.6280 C.ar    1  UNL1       -0.0019
@<TRIPOS>BOND
     1     1     2    2
     2     2     3    1
     3     3     4    1
     4     4    24    1
     5    24    25    1
     6    25    26    1
     7    26    27   ar
     8    27    28   ar
     9    28    29   ar
    10    29    30    1
    11    29    31   ar
    12    31    32   ar
    13     4     5    1
    14     5     6    1
    15     6     7    1
    16     8     7    1
    17     8     9    1
    18     9    10    1
    19    10    11    1
    20    11    12   ar
    21    12    13   ar
    22    13    18    1
    23    18    19    1
    24    19    20   ar
    25    20    21   ar
    26    21    22   ar
    27    22    23   ar
    28    13    14   ar
    29    14    15   ar
    30    15    16   ar
    31    16    17    1
    32     7     2   am
    33    17     8    1
    34    32    26   ar
    35    16    11   ar
    36    23    19   ar
@<TRIPOS>MOLECULE
*****
 32 36 0 0 0
SMALL
GASTEIGER

@<TRIPOS>ATOM
      1 O         140.0832  141.5769  159.7900 O.2     1  UNL1       -0.2734
      2 C         140.2053  143.0275  159.4282 C.2     1  UNL1        0.2420
      3 C         140.1127  143.4528  157.9928 C.3     1  UNL1        0.1587
      4 N         140.2347  144.9035  157.6310 N.3     1  UNL1       -0.2632
      5 C         140.4493  145.9287  158.7047 C.3     1  UNL1        0.0942
      6 C         140.5419  145.5033  160.1402 C.3     1  UNL1        0.1107
      7 N         140.4199  144.0527  160.5019 N.am    1  UNL1       -0.2783
      8 C         140.5125  143.6273  161.9374 C.3     1  UNL1        0.0801
      9 C         139.2642  143.3240  162.7117 C.3     1  UNL1        0.0248
     10 C         139.3569  142.8986  164.1471 C.3     1  UNL1        0.0277
     11 C         140.6978  142.7766  164.8082 C.ar    1  UNL1       -0.0263
     12 C         140.7904  142.3512  166.2436 C.ar    1  UNL1       -0.0070
     13 C         142.1313  142.2291  166.9047 C.ar    1  UNL1        0.0001
     14 C         143.3797  142.5325  166.1302 C.ar    1  UNL1       -0.0027
     15 C         143.2870  142.9579  164.6948 C.ar    1  UNL1       -0.0048
     16 C         141.9461  143.0799  164.0338 C.ar    1  UNL1       -0.0245
     17 C         141.8535  143.5053  162.5984 C.3     1  UNL1        0.0458
     18 C         142.2240  141.8037  168.3401 C.3     1  UNL1        0.1343
     19 N         140.9754  141.5054  169.1160 N.ar    1  UNL1       -0.3036
     20 C         140.1948  140.2253  169.0724 C.ar    1  UNL1        0.0983
     21 C         139.0252  140.3636  170.0012 C.ar    1  UNL1        0.1193
     22 N         139.0828  141.7294  170.6190 N.ar    1  UNL1       -0.2223
     23 C         140.2882  142.4351  170.0719 C.ar    1  UNL1        0.1789
     24 C         140.1421  145.3288  156.1956 C.3     1  UNL1        0.0773
     25 C         138.9395  146.0846  155.7134 C.3     1  UNL1        0.0437
     26 C         139.0436  147.5521  155.4208 C.ar    1  UNL1       -0.0206
     27 C         139.7254  148.0209  154.1696 C.ar    1  UNL1       -0.0019
     28 C         139.8295  149.4883  153.8771 C.ar    1  UNL1        0.0293
     29 C         139.2517  150.4871  154.8356 C.ar    1  UNL1        0.1401
     30 F         139.3558  151.9546  154.5429 F       1  UNL1       -0.2042
     31 C         138.5699  150.0183  156.0867 C.ar    1  UNL1        0.0293
     32 C         138.4658  148.5508  156.3793 C.ar    1  UNL1       -0.0019
@<TRIPOS>BOND
     1     1     2    2
     2     2     3    1
     3     3     4    1
     4     4    24    1
     5    24    25    1
     6    25    26    1
     7    26    27   ar
     8    27    28   ar
     9    28    29   ar
    10    29    30    1
    11    29    31   ar
    12    31    32   ar
    13     4     5    1
    14     5     6    1
    15     6     7    1
    16     8     7    1
    17     8     9    1
    18     9    10    1
    19    10    11    1
    20    11    12   ar
    21    12    13   ar
    22    13    18    1
    23    18    19    1
    24    19    20   ar
    25    20    21   ar
    26    21    22   ar
    27    22    23   ar
    28    13    14   ar
    29    14    15   ar
    30    15    16   ar
    31    16    17    1
    32     7     2   am
    33    17     8    1
    34    32    26   ar
    35    16    11   ar
    36    23    19   ar
