@<TRIPOS>MOLECULE
*****
 24 26 0 0 0
SMALL
GASTEIGER

@<TRIPOS>ATOM
      1 C         140.6852  142.2200  169.0296 C.3     1  UNL1        0.1025
      2 C         140.9052  142.0287  167.5582 C.3     1  UNL1        0.0327
      3 C         140.1705  140.9460  166.8246 C.3     1  UNL1        0.0943
      4 N         139.2159  140.0548  167.5623 N.am    1  UNL1       -0.2761
      5 C         138.4812  138.9722  166.8287 C.2     1  UNL1        0.2490
      6 O         137.5266  138.0809  167.5665 O.2     1  UNL1       -0.2699
      7 C         138.9959  140.2462  169.0338 C.3     1  UNL1        0.0943
      8 C         139.7306  141.3288  169.7674 C.3     1  UNL1        0.0327
      9 C         138.7012  138.7808  165.3573 C.ar    1  UNL1        0.0542
     10 C         139.6017  137.6847  164.8699 C.ar    1  UNL1        0.0061
     11 C         139.8216  137.4933  163.3986 C.ar    1  UNL1        0.0198
     12 C         139.1411  138.3981  162.4146 C.ar    1  UNL1        0.0892
     13 N         139.1664  138.4510  160.9157 N.ar    1  UNL1       -0.2245
     14 C         138.2816  139.5799  160.4767 C.ar    1  UNL1        0.1567
     15 N         138.0157  139.9919  159.0591 N.pl3   1  UNL1       -0.3375
     16 S         137.7094  140.2246  161.7043 S.2     1  UNL1       -0.0520
     17 C         138.2406  139.4942  162.9020 C.ar    1  UNL1        0.0498
     18 C         138.0206  139.6856  164.3733 C.ar    1  UNL1        0.0126
     19 H         138.4402  139.5040  158.3168 H       1  UNL1        0.1442
     20 H         137.4165  140.7501  158.8709 H       1  UNL1        0.1442
     21 C         141.4199  143.3026  169.7632 C.2     1  UNL1        0.3167
     22 O         140.6664  144.4699  170.3288 O.2     1  UNL1       -0.2501
     23 C         143.5938  141.8849  169.8818 C.3     1  UNL1        0.2556
     24 O         142.9080  143.2181  169.9312 O.3     1  UNL1       -0.4444
@<TRIPOS>BOND
     1    23    24    1
     2    24    21    1
     3    21    22    2
     4    21     1    1
     5     1     2    1
     6     2     3    1
     7     3     4    1
     8     4     5   am
     9     5     6    2
    10     5     9    1
    11     9    10   ar
    12    10    11   ar
    13    11    12   ar
    14    12    13   ar
    15    13    14   ar
    16    14    15    1
    17    14    16   ar
    18    16    17   ar
    19    17    18   ar
    20     4     7    1
    21     7     8    1
    22     8     1    1
    23    18     9   ar
    24    17    12   ar
    25    15    19    1
    26    15    20    1
@<TRIPOS>MOLECULE
*****
 24 26 0 0 0
SMALL
GASTEIGER

@<TRIPOS>ATOM
      1 C         140.7309  141.9260  169.4619 C.3     1  UNL1        0.1025
      2 C         140.7392  142.9549  168.3705 C.3     1  UNL1        0.0327
      3 C         140.2019  142.6121  167.0125 C.3     1  UNL1        0.0943
      4 N         139.6565  141.2404  166.7461 N.am    1  UNL1       -0.2761
      5 C         139.1193  140.8976  165.3882 C.2     1  UNL1        0.2490
      6 O         138.5739  139.5260  165.1218 O.2     1  UNL1       -0.2699
      7 C         139.6483  140.2115  167.8376 C.3     1  UNL1        0.0943
      8 C         140.1855  140.5543  169.1955 C.3     1  UNL1        0.0327
      9 C         139.1275  141.9266  164.2967 C.ar    1  UNL1        0.0542
     10 C         137.8662  142.6594  163.9473 C.ar    1  UNL1        0.0061
     11 C         137.8745  143.6883  162.8559 C.ar    1  UNL1        0.0198
     12 C         139.1440  143.9843  162.1138 C.ar    1  UNL1        0.0892
     13 N         139.4558  144.9383  160.9990 N.ar    1  UNL1       -0.2245
     14 C         140.9098  144.7950  160.6594 C.ar    1  UNL1        0.1567
     15 N         141.6475  145.5600  159.6008 N.pl3   1  UNL1       -0.3375
     16 S         141.4966  143.7525  161.5643 S.2     1  UNL1       -0.0520
     17 C         140.4053  143.2515  162.4631 C.ar    1  UNL1        0.0498
     18 C         140.3970  142.2226  163.5546 C.ar    1  UNL1        0.0126
     19 H         141.1727  146.2276  159.0547 H       1  UNL1        0.1442
     20 H         142.6066  145.3945  159.4520 H       1  UNL1        0.1442
     21 C         141.2681  142.2688  170.8198 C.2     1  UNL1        0.3167
     22 O         140.3975  142.1148  172.0316 O.2     1  UNL1       -0.2501
     23 C         143.7054  142.4168  169.9321 C.3     1  UNL1        0.2556
     24 O         142.6759  142.7655  170.9659 O.3     1  UNL1       -0.4444
@<TRIPOS>BOND
     1    23    24    1
     2    24    21    1
     3    21    22    2
     4    21     1    1
     5     1     2    1
     6     2     3    1
     7     3     4    1
     8     4     5   am
     9     5     6    2
    10     5     9    1
    11     9    10   ar
    12    10    11   ar
    13    11    12   ar
    14    12    13   ar
    15    13    14   ar
    16    14    15    1
    17    14    16   ar
    18    16    17   ar
    19    17    18   ar
    20     4     7    1
    21     7     8    1
    22     8     1    1
    23    18     9   ar
    24    17    12   ar
    25    15    19    1
    26    15    20    1
@<TRIPOS>MOLECULE
*****
 24 26 0 0 0
SMALL
GASTEIGER

@<TRIPOS>ATOM
      1 C         140.3623  140.5299  169.1787 C.3     1  UNL1        0.1025
      2 C         140.0164  140.4156  167.7237 C.3     1  UNL1        0.0327
      3 C         140.9521  139.7156  166.7830 C.3     1  UNL1        0.0943
      4 N         142.2336  139.1299  167.2975 N.am    1  UNL1       -0.2761
      5 C         143.1692  138.4300  166.3570 C.2     1  UNL1        0.2490
      6 O         144.4507  137.8443  166.8715 O.2     1  UNL1       -0.2699
      7 C         142.5795  139.2442  168.7527 C.3     1  UNL1        0.0943
      8 C         141.6439  139.9442  169.6932 C.3     1  UNL1        0.0327
      9 C         142.8233  138.3157  164.9018 C.ar    1  UNL1        0.0542
     10 C         141.6057  137.5488  164.4783 C.ar    1  UNL1        0.0061
     11 C         141.2599  137.4345  163.0233 C.ar    1  UNL1        0.0198
     12 C         142.1316  138.0871  161.9917 C.ar    1  UNL1        0.0892
     13 N         142.0441  138.1457  160.4953 N.ar    1  UNL1       -0.2245
     14 C         143.2076  138.9488  159.9941 C.ar    1  UNL1        0.1567
     15 N         143.5113  139.2596  158.5583 N.pl3   1  UNL1       -0.3375
     16 S         144.0142  139.3865  161.1806 S.2     1  UNL1       -0.0520
     17 C         143.3492  138.8540  162.4152 C.ar    1  UNL1        0.0498
     18 C         143.6950  138.9683  163.8702 C.ar    1  UNL1        0.0126
     19 H         142.9189  138.9257  157.8465 H       1  UNL1        0.1442
     20 H         144.3030  139.7975  158.3279 H       1  UNL1        0.1442
     21 C         139.4267  141.2298  170.1193 C.2     1  UNL1        0.3167
     22 O         138.1167  140.5965  170.4835 O.2     1  UNL1       -0.2501
     23 C         140.3946  143.6215  169.8136 C.3     1  UNL1        0.2556
     24 O         139.8011  142.5631  170.6956 O.3     1  UNL1       -0.4444
@<TRIPOS>BOND
     1    23    24    1
     2    24    21    1
     3    21    22    2
     4    21     1    1
     5     1     2    1
     6     2     3    1
     7     3     4    1
     8     4     5   am
     9     5     6    2
    10     5     9    1
    11     9    10   ar
    12    10    11   ar
    13    11    12   ar
    14    12    13   ar
    15    13    14   ar
    16    14    15    1
    17    14    16   ar
    18    16    17   ar
    19    17    18   ar
    20     4     7    1
    21     7     8    1
    22     8     1    1
    23    18     9   ar
    24    17    12   ar
    25    15    19    1
    26    15    20    1
@<TRIPOS>MOLECULE
*****
 24 26 0 0 0
SMALL
GASTEIGER

@<TRIPOS>ATOM
      1 C         140.4432  142.4604  169.1936 C.3     1  UNL1        0.1025
      2 C         140.7580  142.4249  167.7274 C.3     1  UNL1        0.0327
      3 C         140.2150  141.3201  166.8703 C.3     1  UNL1        0.0943
      4 N         139.3573  140.2508  167.4794 N.am    1  UNL1       -0.2761
      5 C         138.8143  139.1460  166.6223 C.2     1  UNL1        0.2490
      6 O         137.9566  138.0768  167.2314 O.2     1  UNL1       -0.2699
      7 C         139.0425  140.2864  168.9456 C.3     1  UNL1        0.0943
      8 C         139.5855  141.3912  169.8027 C.3     1  UNL1        0.0327
      9 C         139.1291  139.1104  165.1561 C.ar    1  UNL1        0.0542
     10 C         138.1634  139.6933  164.1674 C.ar    1  UNL1        0.0061
     11 C         138.4782  139.6577  162.7012 C.ar    1  UNL1        0.0198
     12 C         139.7586  139.0392  162.2238 C.ar    1  UNL1        0.0892
     13 N         140.3361  138.8602  160.8510 N.ar    1  UNL1       -0.2245
     14 C         141.6587  138.1667  160.9914 C.ar    1  UNL1        0.1567
     15 N         142.5797  137.7890  159.8692 N.pl3   1  UNL1       -0.3375
     16 S         141.8986  137.9171  162.4509 S.2     1  UNL1       -0.0520
     17 C         140.7243  138.4563  163.2126 C.ar    1  UNL1        0.0498
     18 C         140.4095  138.4919  164.6787 C.ar    1  UNL1        0.0126
     19 H         142.3331  137.9964  158.9390 H       1  UNL1        0.1442
     20 H         143.4309  137.3338  160.0630 H       1  UNL1        0.1442
     21 C         140.9862  143.5652  170.0506 C.2     1  UNL1        0.3167
     22 O         140.1909  144.8218  170.2473 O.2     1  UNL1       -0.2501
     23 C         143.4011  142.6070  170.0474 C.3     1  UNL1        0.2556
     24 O         142.3245  143.4135  170.7110 O.3     1  UNL1       -0.4444
@<TRIPOS>BOND
     1    23    24    1
     2    24    21    1
     3    21    22    2
     4    21     1    1
     5     1     2    1
     6     2     3    1
     7     3     4    1
     8     4     5   am
     9     5     6    2
    10     5     9    1
    11     9    10   ar
    12    10    11   ar
    13    11    12   ar
    14    12    13   ar
    15    13    14   ar
    16    14    15    1
    17    14    16   ar
    18    16    17   ar
    19    17    18   ar
    20     4     7    1
    21     7     8    1
    22     8     1    1
    23    18     9   ar
    24    17    12   ar
    25    15    19    1
    26    15    20    1
@<TRIPOS>MOLECULE
*****
 24 26 0 0 0
SMALL
GASTEIGER

@<TRIPOS>ATOM
      1 C         141.2262  141.8025  168.7343 C.3     1  UNL1        0.1025
      2 C         141.1533  142.1053  167.2670 C.3     1  UNL1        0.0327
      3 C         140.1996  141.3478  166.3913 C.3     1  UNL1        0.0943
      4 N         139.3189  140.2875  166.9830 N.am    1  UNL1       -0.2761
      5 C         138.3652  139.5300  166.1074 C.2     1  UNL1        0.2490
      6 O         137.4844  138.4698  166.6990 O.2     1  UNL1       -0.2699
      7 C         139.3918  139.9847  168.4504 C.3     1  UNL1        0.0943
      8 C         140.3454  140.7422  169.3260 C.3     1  UNL1        0.0327
      9 C         138.2923  139.8328  164.6400 C.ar    1  UNL1        0.0542
     10 C         137.6282  141.0915  164.1660 C.ar    1  UNL1        0.0061
     11 C         137.5553  141.3942  162.6987 C.ar    1  UNL1        0.0198
     12 C         138.1466  140.4382  161.7054 C.ar    1  UNL1        0.0892
     13 N         138.2260  140.4686  160.2077 N.ar    1  UNL1       -0.2245
     14 C         138.9391  139.2286  159.7562 C.ar    1  UNL1        0.1567
     15 N         139.2384  138.8515  158.3355 N.pl3   1  UNL1       -0.3375
     16 S         139.3005  138.4320  160.9748 S.2     1  UNL1       -0.0520
     17 C         138.8107  139.1796  162.1794 C.ar    1  UNL1        0.0498
     18 C         138.8835  138.8769  163.6467 C.ar    1  UNL1        0.0126
     19 H         138.9592  139.4431  157.5999 H       1  UNL1        0.1442
     20 H         139.7141  138.0123  158.1388 H       1  UNL1        0.1442
     21 C         142.1798  142.5599  169.6099 C.2     1  UNL1        0.3167
     22 O         143.6058  142.1103  169.7307 O.2     1  UNL1       -0.2501
     23 C         140.3481  144.3387  170.0905 C.3     1  UNL1        0.2556
     24 O         141.7076  143.7670  170.3648 O.3     1  UNL1       -0.4444
@<TRIPOS>BOND
     1    23    24    1
     2    24    21    1
     3    21    22    2
     4    21     1    1
     5     1     2    1
     6     2     3    1
     7     3     4    1
     8     4     5   am
     9     5     6    2
    10     5     9    1
    11     9    10   ar
    12    10    11   ar
    13    11    12   ar
    14    12    13   ar
    15    13    14   ar
    16    14    15    1
    17    14    16   ar
    18    16    17   ar
    19    17    18   ar
    20     4     7    1
    21     7     8    1
    22     8     1    1
    23    18     9   ar
    24    17    12   ar
    25    15    19    1
    26    15    20    1
@<TRIPOS>MOLECULE
*****
 24 26 0 0 0
SMALL
GASTEIGER

@<TRIPOS>ATOM
      1 C         140.7442  140.2853  169.3792 C.3     1  UNL1        0.1025
      2 C         139.9583  141.1009  168.3958 C.3     1  UNL1        0.0327
      3 C         140.3951  141.1730  166.9626 C.3     1  UNL1        0.0943
      4 N         141.6177  140.4295  166.5128 N.am    1  UNL1       -0.2761
      5 C         142.0545  140.5015  165.0796 C.2     1  UNL1        0.2490
      6 O         143.2771  139.7580  164.6299 O.2     1  UNL1       -0.2699
      7 C         142.4036  139.6138  167.4963 C.3     1  UNL1        0.0943
      8 C         141.9669  139.5418  168.9295 C.3     1  UNL1        0.0327
      9 C         141.2686  141.3172  164.0961 C.ar    1  UNL1        0.0542
     10 C         140.3489  140.6389  163.1246 C.ar    1  UNL1        0.0061
     11 C         139.5631  141.4545  162.1412 C.ar    1  UNL1        0.0198
     12 C         139.6970  142.9485  162.1293 C.ar    1  UNL1        0.0892
     13 N         139.0547  144.0071  161.2825 N.ar    1  UNL1       -0.2245
     14 C         139.5776  145.3396  161.7307 C.ar    1  UNL1        0.1567
     15 N         139.2012  146.6731  161.1560 N.pl3   1  UNL1       -0.3375
     16 S         140.5430  145.1046  162.8545 S.2     1  UNL1       -0.0520
     17 C         140.6167  143.6268  163.1008 C.ar    1  UNL1        0.0498
     18 C         141.4025  142.8111  164.0843 C.ar    1  UNL1        0.0126
     19 H         138.5549  146.7252  160.4152 H       1  UNL1        0.1442
     20 H         139.6005  147.4962  161.5197 H       1  UNL1        0.1442
     21 C         140.3075  140.2133  170.8124 C.2     1  UNL1        0.3167
     22 O         139.2505  139.2324  171.2259 O.2     1  UNL1       -0.2501
     23 C         141.8478  142.2229  171.3946 C.3     1  UNL1        0.2556
     24 O         140.9275  141.1220  171.8320 O.3     1  UNL1       -0.4444
@<TRIPOS>BOND
     1    23    24    1
     2    24    21    1
     3    21    22    2
     4    21     1    1
     5     1     2    1
     6     2     3    1
     7     3     4    1
     8     4     5   am
     9     5     6    2
    10     5     9    1
    11     9    10   ar
    12    10    11   ar
    13    11    12   ar
    14    12    13   ar
    15    13    14   ar
    16    14    15    1
    17    14    16   ar
    18    16    17   ar
    19    17    18   ar
    20     4     7    1
    21     7     8    1
    22     8     1    1
    23    18     9   ar
    24    17    12   ar
    25    15    19    1
    26    15    20    1
@<TRIPOS>MOLECULE
*****
 24 26 0 0 0
SMALL
GASTEIGER

@<TRIPOS>ATOM
      1 C         140.6135  139.9951  169.2145 C.3     1  UNL1        0.1025
      2 C         139.6900  139.9720  168.0328 C.3     1  UNL1        0.0327
      3 C         140.2261  139.6559  166.6679 C.3     1  UNL1        0.0943
      4 N         141.6858  139.3629  166.4849 N.am    1  UNL1       -0.2761
      5 C         142.2219  139.0468  165.1202 C.2     1  UNL1        0.2490
      6 O         143.6816  138.7538  164.9372 O.2     1  UNL1       -0.2699
      7 C         142.6093  139.3860  167.6668 C.3     1  UNL1        0.0943
      8 C         142.0731  139.7020  169.0315 C.3     1  UNL1        0.0327
      9 C         141.2984  139.0238  163.9384 C.ar    1  UNL1        0.0542
     10 C         140.5386  137.7743  163.6045 C.ar    1  UNL1        0.0061
     11 C         139.6151  137.7513  162.4228 C.ar    1  UNL1        0.0198
     12 C         139.4515  138.9778  161.5748 C.ar    1  UNL1        0.0892
     13 N         138.6197  139.2524  160.3571 N.ar    1  UNL1       -0.2245
     14 C         138.8655  140.6716  159.9383 C.ar    1  UNL1        0.1567
     15 N         138.2378  141.3665  158.7664 N.pl3   1  UNL1       -0.3375
     16 S         139.8491  141.2741  160.8973 S.2     1  UNL1       -0.0520
     17 C         140.2113  140.2272  161.9086 C.ar    1  UNL1        0.0498
     18 C         141.1348  140.2502  163.0904 C.ar    1  UNL1        0.0126
     19 H         137.5999  140.8843  158.1921 H       1  UNL1        0.1442
     20 H         138.4637  142.3047  158.5716 H       1  UNL1        0.1442
     21 C         140.0773  140.3111  170.5793 C.2     1  UNL1        0.3167
     22 O         139.2546  139.2957  171.3156 O.2     1  UNL1       -0.2501
     23 C         139.8262  142.8971  170.5852 C.3     1  UNL1        0.2556
     24 O         140.3638  141.6426  171.2078 O.3     1  UNL1       -0.4444
@<TRIPOS>BOND
     1    23    24    1
     2    24    21    1
     3    21    22    2
     4    21     1    1
     5     1     2    1
     6     2     3    1
     7     3     4    1
     8     4     5   am
     9     5     6    2
    10     5     9    1
    11     9    10   ar
    12    10    11   ar
    13    11    12   ar
    14    12    13   ar
    15    13    14   ar
    16    14    15    1
    17    14    16   ar
    18    16    17   ar
    19    17    18   ar
    20     4     7    1
    21     7     8    1
    22     8     1    1
    23    18     9   ar
    24    17    12   ar
    25    15    19    1
    26    15    20    1
@<TRIPOS>MOLECULE
*****
 24 26 0 0 0
SMALL
GASTEIGER

@<TRIPOS>ATOM
      1 C         139.1722  139.9386  168.2600 C.3     1  UNL1        0.1025
      2 C         140.3950  140.2950  167.4677 C.3     1  UNL1        0.0327
      3 C         140.5406  139.8116  166.0551 C.3     1  UNL1        0.0943
      4 N         139.4635  138.9718  165.4350 N.am    1  UNL1       -0.2761
      5 C         139.6091  138.4885  164.0225 C.2     1  UNL1        0.2490
      6 O         138.5319  137.6487  163.4024 O.2     1  UNL1       -0.2699
      7 C         138.2407  138.6154  166.2274 C.3     1  UNL1        0.0943
      8 C         138.0951  139.0988  167.6399 C.3     1  UNL1        0.0327
      9 C         140.8319  138.8449  163.2301 C.ar    1  UNL1        0.0542
     10 C         142.0105  137.9173  163.2120 C.ar    1  UNL1        0.0061
     11 C         143.2332  138.2737  162.4196 C.ar    1  UNL1        0.0198
     12 C         143.2773  139.5577  161.6453 C.ar    1  UNL1        0.0892
     13 N         144.3371  140.1718  160.7794 N.ar    1  UNL1       -0.2245
     14 C         143.8135  141.4789  160.2625 C.ar    1  UNL1        0.1567
     15 N         144.5448  142.4260  159.3580 N.pl3   1  UNL1       -0.3375
     16 S         142.4300  141.6726  160.8088 S.2     1  UNL1       -0.0520
     17 C         142.0986  140.4853  161.6635 C.ar    1  UNL1        0.0498
     18 C         140.8759  140.1288  162.4559 C.ar    1  UNL1        0.0126
     19 H         145.4548  142.2096  159.0508 H       1  UNL1        0.1442
     20 H         144.1149  143.2640  159.0715 H       1  UNL1        0.1442
     21 C         139.0267  140.4219  169.6725 C.2     1  UNL1        0.3167
     22 O         138.2196  139.6288  170.6572 O.2     1  UNL1       -0.2501
     23 C         140.8880  141.6567  170.9995 C.3     1  UNL1        0.2556
     24 O         139.6881  141.6985  170.1003 O.3     1  UNL1       -0.4444
@<TRIPOS>BOND
     1    23    24    1
     2    24    21    1
     3    21    22    2
     4    21     1    1
     5     1     2    1
     6     2     3    1
     7     3     4    1
     8     4     5   am
     9     5     6    2
    10     5     9    1
    11     9    10   ar
    12    10    11   ar
    13    11    12   ar
    14    12    13   ar
    15    13    14   ar
    16    14    15    1
    17    14    16   ar
    18    16    17   ar
    19    17    18   ar
    20     4     7    1
    21     7     8    1
    22     8     1    1
    23    18     9   ar
    24    17    12   ar
    25    15    19    1
    26    15    20    1
@<TRIPOS>MOLECULE
*****
 24 26 0 0 0
SMALL
GASTEIGER

@<TRIPOS>ATOM
      1 C         139.1726  142.0857  161.5932 C.3     1  UNL1        0.1025
      2 C         140.2719  142.3953  162.5656 C.3     1  UNL1        0.0327
      3 C         140.2651  141.7703  163.9292 C.3     1  UNL1        0.0943
      4 N         139.1589  140.8358  164.3204 N.am    1  UNL1       -0.2761
      5 C         139.1520  140.2108  165.6840 C.2     1  UNL1        0.2490
      6 O         138.0458  139.2763  166.0751 O.2     1  UNL1       -0.2699
      7 C         138.0595  140.5263  163.3479 C.3     1  UNL1        0.0943
      8 C         138.0664  141.1512  161.9844 C.3     1  UNL1        0.0327
      9 C         140.2514  140.5204  166.6564 C.ar    1  UNL1        0.0542
     10 C         141.4489  139.6215  166.7456 C.ar    1  UNL1        0.0061
     11 C         142.5482  139.9310  167.7181 C.ar    1  UNL1        0.0198
     12 C         142.4500  141.1394  168.6013 C.ar    1  UNL1        0.0892
     13 N         143.3698  141.6951  169.6479 N.ar    1  UNL1       -0.2245
     14 C         142.7407  142.9375  170.2054 C.ar    1  UNL1        0.1567
     15 N         143.3187  143.8139  171.2768 N.pl3   1  UNL1       -0.3375
     16 S         141.4322  143.1495  169.5035 S.2     1  UNL1       -0.0520
     17 C         141.2525  142.0383  168.5121 C.ar    1  UNL1        0.0498
     18 C         140.1532  141.7288  167.5397 C.ar    1  UNL1        0.0126
     19 H         144.1891  143.5906  171.6792 H       1  UNL1        0.1442
     20 H         142.8277  144.6124  171.5777 H       1  UNL1        0.1442
     21 C         139.1795  142.7107  160.2297 C.2     1  UNL1        0.3167
     22 O         139.2988  144.1992  160.0874 O.2     1  UNL1       -0.2501
     23 C         138.0033  142.1261  157.9880 C.3     1  UNL1        0.2556
     24 O         139.0670  141.8472  159.0083 O.3     1  UNL1       -0.4444
@<TRIPOS>BOND
     1    23    24    1
     2    24    21    1
     3    21    22    2
     4    21     1    1
     5     1     2    1
     6     2     3    1
     7     3     4    1
     8     4     5   am
     9     5     6    2
    10     5     9    1
    11     9    10   ar
    12    10    11   ar
    13    11    12   ar
    14    12    13   ar
    15    13    14   ar
    16    14    15    1
    17    14    16   ar
    18    16    17   ar
    19    17    18   ar
    20     4     7    1
    21     7     8    1
    22     8     1    1
    23    18     9   ar
    24    17    12   ar
    25    15    19    1
    26    15    20    1
