@<TRIPOS>MOLECULE
*****
 26 28 0 0 0
SMALL
GASTEIGER

@<TRIPOS>ATOM
      1 C         141.0269  144.5553  163.4641 C.3     1  UNL1        0.0716
      2 C         142.0548  143.5818  163.9600 C.3     1  UNL1        0.0199
      3 C         141.8032  142.7998  165.2151 C.3     1  UNL1        0.0060
      4 C         140.5237  142.9912  165.9742 C.3     1  UNL1        0.0224
      5 C         139.4958  143.9646  165.4783 C.3     1  UNL1        0.0060
      6 C         139.7474  144.7467  164.2232 C.3     1  UNL1        0.0199
      7 C         140.2720  142.2092  167.2292 C.ar    1  UNL1       -0.0223
      8 C         139.8076  140.7853  167.1453 C.ar    1  UNL1       -0.0012
      9 C         139.5560  140.0033  168.4003 C.ar    1  UNL1        0.0363
     10 C         139.7687  140.6451  169.7392 C.ar    1  UNL1        0.1337
     11 O         139.5170  139.8630  170.9943 O.3     1  UNL1       -0.5055
     12 C         140.2331  142.0689  169.8232 C.ar    1  UNL1        0.0363
     13 C         140.4847  142.8510  168.5681 C.ar    1  UNL1       -0.0012
     14 H         139.2269  138.9736  170.9418 H       1  UNL1        0.2922
     15 O         139.9722  143.5582  160.8386 O.2     1  UNL1       -0.2751
     16 C         140.7512  144.8388  160.8964 C.2     1  UNL1        0.2228
     17 N         141.2786  145.3373  162.2091 N.am    1  UNL1       -0.3060
     18 H         141.7899  146.1778  162.2470 H       1  UNL1        0.1494
     19 C         141.0028  145.6208  159.6413 C.3     1  UNL1        0.0898
     20 C         141.1002  144.9121  158.3228 C.3     1  UNL1        0.0375
     21 C         140.0939  145.1902  157.2457 C.ar    1  UNL1       -0.0025
     22 C         139.8661  146.5968  156.7772 C.ar    1  UNL1       -0.0011
     23 C         138.8598  146.8748  155.7002 C.ar    1  UNL1        0.0204
     24 C         138.0814  145.7462  155.0916 C.ar    1  UNL1        0.0989
     25 N         138.3092  144.3396  155.5601 N.ar    1  UNL1       -0.2426
     26 C         139.3154  144.0616  156.6372 C.ar    1  UNL1        0.0946
@<TRIPOS>BOND
     1    15    16    2
     2    16    19    1
     3    19    20    1
     4    20    21    1
     5    21    22   ar
     6    22    23   ar
     7    23    24   ar
     8    24    25   ar
     9    25    26   ar
    10    16    17   am
    11     1    17    1
    12     1     2    1
    13     2     3    1
    14     3     4    1
    15     4     7    1
    16     7     8   ar
    17     8     9   ar
    18     9    10   ar
    19    10    11    1
    20    10    12   ar
    21    12    13   ar
    22     4     5    1
    23     5     6    1
    24    26    21   ar
    25     6     1    1
    26    13     7   ar
    27    17    18    1
    28    11    14    1
@<TRIPOS>MOLECULE
*****
 26 28 0 0 0
SMALL
GASTEIGER

@<TRIPOS>ATOM
      1 C         140.9469  144.6225  163.4666 C.3     1  UNL1        0.0716
      2 C         139.6584  144.7731  164.2196 C.3     1  UNL1        0.0199
      3 C         139.4236  143.9795  165.4706 C.3     1  UNL1        0.0060
      4 C         140.4773  143.0353  165.9687 C.3     1  UNL1        0.0224
      5 C         141.7659  142.8847  165.2158 C.3     1  UNL1        0.0060
      6 C         142.0007  143.6783  163.9647 C.3     1  UNL1        0.0199
      7 C         140.2425  142.2417  167.2197 C.ar    1  UNL1       -0.0223
      8 C         140.4609  142.8751  168.5618 C.ar    1  UNL1       -0.0012
      9 C         140.2262  142.0815  169.8128 C.ar    1  UNL1        0.0363
     10 C         139.7730  140.6544  169.7217 C.ar    1  UNL1        0.1337
     11 O         139.5382  139.8608  170.9728 O.3     1  UNL1       -0.5055
     12 C         139.5546  140.0210  168.3797 C.ar    1  UNL1        0.0363
     13 C         139.7894  140.8147  167.1286 C.ar    1  UNL1       -0.0012
     14 H         139.6746  140.2565  171.8111 H       1  UNL1        0.2922
     15 O         140.0459  143.5453  160.8157 O.2     1  UNL1       -0.2751
     16 C         140.7312  144.8775  160.8902 C.2     1  UNL1        0.2228
     17 N         141.1817  145.4161  162.2157 N.am    1  UNL1       -0.3060
     18 H         141.6315  146.2905  162.2645 H       1  UNL1        0.1494
     19 C         140.9660  145.6712  159.6391 C.3     1  UNL1        0.0898
     20 C         141.0995  144.9698  158.3200 C.3     1  UNL1        0.0375
     21 C         140.0706  145.1832  157.2495 C.ar    1  UNL1       -0.0025
     22 C         139.3255  144.0119  156.6812 C.ar    1  UNL1       -0.0011
     23 C         138.2967  144.2254  155.6108 C.ar    1  UNL1        0.0204
     24 C         138.0130  145.6101  155.1086 C.ar    1  UNL1        0.0989
     25 N         138.7581  146.7813  155.6769 N.ar    1  UNL1       -0.2426
     26 C         139.7869  146.5679  156.7473 C.ar    1  UNL1        0.0946
@<TRIPOS>BOND
     1    15    16    2
     2    16    19    1
     3    19    20    1
     4    20    21    1
     5    21    22   ar
     6    22    23   ar
     7    23    24   ar
     8    24    25   ar
     9    25    26   ar
    10    16    17   am
    11     1    17    1
    12     1     2    1
    13     2     3    1
    14     3     4    1
    15     4     7    1
    16     7     8   ar
    17     8     9   ar
    18     9    10   ar
    19    10    11    1
    20    10    12   ar
    21    12    13   ar
    22     4     5    1
    23     5     6    1
    24    26    21   ar
    25     6     1    1
    26    13     7   ar
    27    17    18    1
    28    11    14    1
@<TRIPOS>MOLECULE
*****
 26 28 0 0 0
SMALL
GASTEIGER

@<TRIPOS>ATOM
      1 C         140.8958  144.6060  163.5909 C.3     1  UNL1        0.0716
      2 C         139.6597  144.7953  164.4193 C.3     1  UNL1        0.0199
      3 C         139.4638  143.9894  165.6691 C.3     1  UNL1        0.0060
      4 C         140.5040  142.9942  166.0906 C.3     1  UNL1        0.0224
      5 C         141.7401  142.8049  165.2622 C.3     1  UNL1        0.0060
      6 C         141.9360  143.6108  164.0123 C.3     1  UNL1        0.0199
      7 C         140.3081  142.1882  167.3404 C.ar    1  UNL1       -0.0223
      8 C         139.8800  140.7535  167.2483 C.ar    1  UNL1       -0.0012
      9 C         139.6841  139.9476  168.4981 C.ar    1  UNL1        0.0363
     10 C         139.9162  140.5763  169.8400 C.ar    1  UNL1        0.1337
     11 O         139.7203  139.7703  171.0899 O.3     1  UNL1       -0.5055
     12 C         140.3443  142.0109  169.9322 C.ar    1  UNL1        0.0363
     13 C         140.5402  142.8170  168.6823 C.ar    1  UNL1       -0.0012
     14 H         139.4529  138.8741  171.0323 H       1  UNL1        0.2922
     15 O         139.2553  144.0120  161.1506 O.2     1  UNL1       -0.2751
     16 C         140.2714  145.1149  161.1209 C.2     1  UNL1        0.2228
     17 N         141.0917  145.4120  162.3411 N.am    1  UNL1       -0.3060
     18 H         141.7587  146.1358  162.3216 H       1  UNL1        0.1494
     19 C         140.4673  145.9209  159.8710 C.3     1  UNL1        0.0898
     20 C         140.8718  145.2416  158.5963 C.3     1  UNL1        0.0375
     21 C         139.9562  145.2693  157.4084 C.ar    1  UNL1       -0.0025
     22 C         139.3015  144.0050  156.9365 C.ar    1  UNL1       -0.0011
     23 C         138.3859  144.0328  155.7487 C.ar    1  UNL1        0.0204
     24 C         138.1251  145.3249  155.0328 C.ar    1  UNL1        0.0989
     25 N         138.7798  146.5892  155.5048 N.ar    1  UNL1       -0.2426
     26 C         139.6954  146.5614  156.6926 C.ar    1  UNL1        0.0946
@<TRIPOS>BOND
     1    15    16    2
     2    16    19    1
     3    19    20    1
     4    20    21    1
     5    21    22   ar
     6    22    23   ar
     7    23    24   ar
     8    24    25   ar
     9    25    26   ar
    10    16    17   am
    11     1    17    1
    12     1     2    1
    13     2     3    1
    14     3     4    1
    15     4     7    1
    16     7     8   ar
    17     8     9   ar
    18     9    10   ar
    19    10    11    1
    20    10    12   ar
    21    12    13   ar
    22     4     5    1
    23     5     6    1
    24    26    21   ar
    25     6     1    1
    26    13     7   ar
    27    17    18    1
    28    11    14    1
@<TRIPOS>MOLECULE
*****
 26 28 0 0 0
SMALL
GASTEIGER

@<TRIPOS>ATOM
      1 C         142.3290  140.2330  167.3999 C.3     1  UNL1        0.0716
      2 C         142.9416  141.6014  167.3522 C.3     1  UNL1        0.0199
      3 C         142.4242  142.6214  166.3817 C.3     1  UNL1        0.0060
      4 C         141.2941  142.2730  165.4589 C.3     1  UNL1        0.0224
      5 C         140.6815  140.9047  165.5066 C.3     1  UNL1        0.0060
      6 C         141.1989  139.8846  166.4771 C.3     1  UNL1        0.0199
      7 C         140.7766  143.2930  164.4884 C.ar    1  UNL1       -0.0223
      8 C         141.7308  144.2176  163.7922 C.ar    1  UNL1       -0.0012
      9 C         141.2133  145.2376  162.8217 C.ar    1  UNL1        0.0363
     10 C         139.7417  145.3330  162.5474 C.ar    1  UNL1        0.1337
     11 O         139.2242  146.3530  161.5769 O.3     1  UNL1       -0.5055
     12 C         138.7875  144.4084  163.2436 C.ar    1  UNL1        0.0363
     13 C         139.3050  143.3884  164.2142 C.ar    1  UNL1       -0.0012
     14 H         139.8203  146.9305  161.1420 H       1  UNL1        0.2922
     15 O         141.1066  140.0046  170.1299 O.2     1  UNL1       -0.2751
     16 C         142.2353  139.0988  169.7354 C.2     1  UNL1        0.2228
     17 N         142.8465  139.2130  168.3703 N.am    1  UNL1       -0.3060
     18 H         143.5873  138.6185  168.1114 H       1  UNL1        0.1494
     19 C         142.7528  138.0788  170.7059 C.3     1  UNL1        0.0898
     20 C         143.8632  137.1548  170.3020 C.3     1  UNL1        0.0375
     21 C         144.7188  136.5073  171.3502 C.ar    1  UNL1       -0.0025
     22 C         144.6451  135.0250  171.5678 C.ar    1  UNL1       -0.0011
     23 C         145.5007  134.3775  172.6160 C.ar    1  UNL1        0.0204
     24 C         146.4299  135.2123  173.4465 C.ar    1  UNL1        0.0989
     25 N         146.5036  136.6945  173.2288 N.ar    1  UNL1       -0.2426
     26 C         145.6480  137.3420  172.1807 C.ar    1  UNL1        0.0946
@<TRIPOS>BOND
     1    15    16    2
     2    16    19    1
     3    19    20    1
     4    20    21    1
     5    21    22   ar
     6    22    23   ar
     7    23    24   ar
     8    24    25   ar
     9    25    26   ar
    10    16    17   am
    11     1    17    1
    12     1     2    1
    13     2     3    1
    14     3     4    1
    15     4     7    1
    16     7     8   ar
    17     8     9   ar
    18     9    10   ar
    19    10    11    1
    20    10    12   ar
    21    12    13   ar
    22     4     5    1
    23     5     6    1
    24    26    21   ar
    25     6     1    1
    26    13     7   ar
    27    17    18    1
    28    11    14    1
@<TRIPOS>MOLECULE
*****
 26 28 0 0 0
SMALL
GASTEIGER

@<TRIPOS>ATOM
      1 C         138.2314  140.5153  164.2209 C.3     1  UNL1        0.0716
      2 C         137.9925  139.4143  165.2114 C.3     1  UNL1        0.0199
      3 C         138.6886  139.4366  166.5399 C.3     1  UNL1        0.0060
      4 C         139.6235  140.5598  166.8780 C.3     1  UNL1        0.0224
      5 C         139.8624  141.6607  165.8876 C.3     1  UNL1        0.0060
      6 C         139.1663  141.6384  164.5591 C.3     1  UNL1        0.0199
      7 C         140.3195  140.5820  168.2065 C.ar    1  UNL1       -0.0223
      8 C         141.7872  140.8835  168.2794 C.ar    1  UNL1       -0.0012
      9 C         142.4832  140.9058  169.6079 C.ar    1  UNL1        0.0363
     10 C         141.7117  140.6266  170.8636 C.ar    1  UNL1        0.1337
     11 O         142.4078  140.6489  172.1921 O.3     1  UNL1       -0.5055
     12 C         140.2442  140.3251  170.7908 C.ar    1  UNL1        0.0363
     13 C         139.5480  140.3028  169.4622 C.ar    1  UNL1       -0.0012
     14 H         143.3246  140.8372  172.2376 H       1  UNL1        0.2922
     15 O         139.1425  138.6195  162.0819 O.2     1  UNL1       -0.2751
     16 C         137.9909  139.5451  161.8229 C.2     1  UNL1        0.2228
     17 N         137.5353  140.4930  162.8924 N.am    1  UNL1       -0.3060
     18 H         136.7795  141.1005  162.7224 H       1  UNL1        0.1494
     19 C         137.2948  139.5228  160.4943 C.3     1  UNL1        0.0898
     20 C         137.8449  140.3158  159.3460 C.3     1  UNL1        0.0375
     21 C         138.9767  141.2743  159.5704 C.ar    1  UNL1       -0.0025
     22 C         138.6975  142.6604  160.0712 C.ar    1  UNL1       -0.0011
     23 C         139.8293  143.6188  160.2956 C.ar    1  UNL1        0.0204
     24 C         141.2402  143.1913  160.0191 C.ar    1  UNL1        0.0989
     25 N         141.5194  141.8052  159.5182 N.ar    1  UNL1       -0.2426
     26 C         140.3876  140.8468  159.2939 C.ar    1  UNL1        0.0946
@<TRIPOS>BOND
     1    15    16    2
     2    16    19    1
     3    19    20    1
     4    20    21    1
     5    21    22   ar
     6    22    23   ar
     7    23    24   ar
     8    24    25   ar
     9    25    26   ar
    10    16    17   am
    11     1    17    1
    12     1     2    1
    13     2     3    1
    14     3     4    1
    15     4     7    1
    16     7     8   ar
    17     8     9   ar
    18     9    10   ar
    19    10    11    1
    20    10    12   ar
    21    12    13   ar
    22     4     5    1
    23     5     6    1
    24    26    21   ar
    25     6     1    1
    26    13     7   ar
    27    17    18    1
    28    11    14    1
@<TRIPOS>MOLECULE
*****
 26 28 0 0 0
SMALL
GASTEIGER

@<TRIPOS>ATOM
      1 C         141.8895  138.2476  164.2423 C.3     1  UNL1        0.0716
      2 C         140.5497  138.8282  164.5857 C.3     1  UNL1        0.0199
      3 C         140.3349  139.4818  165.9186 C.3     1  UNL1        0.0060
      4 C         141.4598  139.5548  166.9081 C.3     1  UNL1        0.0224
      5 C         142.7996  138.9742  166.5648 C.3     1  UNL1        0.0060
      6 C         143.0144  138.3206  165.2318 C.3     1  UNL1        0.0199
      7 C         141.2450  140.2084  168.2410 C.ar    1  UNL1       -0.0223
      8 C         140.2064  141.2801  168.3922 C.ar    1  UNL1       -0.0012
      9 C         139.9916  141.9337  169.7250 C.ar    1  UNL1        0.0363
     10 C         140.8153  141.5156  170.9069 C.ar    1  UNL1        0.1337
     11 O         140.6004  142.1692  172.2398 O.3     1  UNL1       -0.5055
     12 C         141.8538  140.4439  170.7558 C.ar    1  UNL1        0.0363
     13 C         142.0687  139.7902  169.4228 C.ar    1  UNL1       -0.0012
     14 H         139.9517  142.8387  172.3342 H       1  UNL1        0.2922
     15 O         143.5511  139.6147  162.1518 O.2     1  UNL1       -0.2751
     16 C         142.9351  138.2776  161.8642 C.2     1  UNL1        0.2228
     17 N         142.1043  137.5940  162.9094 N.am    1  UNL1       -0.3060
     18 H         141.7001  136.7164  162.7206 H       1  UNL1        0.1494
     19 C         143.1500  137.6240  160.5312 C.3     1  UNL1        0.0898
     20 C         142.9438  138.4084  159.2694 C.3     1  UNL1        0.0375
     21 C         142.1593  137.8148  158.1370 C.ar    1  UNL1       -0.0025
     22 C         140.7278  138.2107  157.9277 C.ar    1  UNL1       -0.0011
     23 C         139.9434  137.6172  156.7953 C.ar    1  UNL1        0.0204
     24 C         140.5905  136.6277  155.8722 C.ar    1  UNL1        0.0989
     25 N         142.0220  136.2317  156.0815 N.ar    1  UNL1       -0.2426
     26 C         142.8065  136.8253  157.2139 C.ar    1  UNL1        0.0946
@<TRIPOS>BOND
     1    15    16    2
     2    16    19    1
     3    19    20    1
     4    20    21    1
     5    21    22   ar
     6    22    23   ar
     7    23    24   ar
     8    24    25   ar
     9    25    26   ar
    10    16    17   am
    11     1    17    1
    12     1     2    1
    13     2     3    1
    14     3     4    1
    15     4     7    1
    16     7     8   ar
    17     8     9   ar
    18     9    10   ar
    19    10    11    1
    20    10    12   ar
    21    12    13   ar
    22     4     5    1
    23     5     6    1
    24    26    21   ar
    25     6     1    1
    26    13     7   ar
    27    17    18    1
    28    11    14    1
@<TRIPOS>MOLECULE
*****
 26 28 0 0 0
SMALL
GASTEIGER

@<TRIPOS>ATOM
      1 C         139.2685  139.3404  163.7619 C.3     1  UNL1        0.0716
      2 C         140.5749  140.0428  163.9860 C.3     1  UNL1        0.0199
      3 C         141.0673  140.2830  165.3824 C.3     1  UNL1        0.0060
      4 C         140.2534  139.8209  166.5546 C.3     1  UNL1        0.0224
      5 C         138.9471  139.1185  166.3304 C.3     1  UNL1        0.0060
      6 C         138.4546  138.8782  164.9341 C.3     1  UNL1        0.0199
      7 C         140.7458  140.0611  167.9509 C.ar    1  UNL1       -0.0223
      8 C         139.7650  140.2580  169.0686 C.ar    1  UNL1       -0.0012
      9 C         140.2574  140.4982  170.4649 C.ar    1  UNL1        0.0363
     10 C         141.7306  140.5416  170.7436 C.ar    1  UNL1        0.1337
     11 O         142.2230  140.7818  172.1401 O.3     1  UNL1       -0.5055
     12 C         142.7115  140.3446  169.6260 C.ar    1  UNL1        0.0363
     13 C         142.2191  140.1044  168.2296 C.ar    1  UNL1       -0.0012
     14 H         141.6103  140.9048  172.8382 H       1  UNL1        0.2922
     15 O         137.2605  141.2032  162.5382 O.2     1  UNL1       -0.2751
     16 C         137.7721  140.0316  161.7537 C.2     1  UNL1        0.2228
     17 N         138.7761  139.1001  162.3655 N.am    1  UNL1       -0.3060
     18 H         139.1119  138.3311  161.8506 H       1  UNL1        0.1494
     19 C         137.2796  139.7914  160.3573 C.3     1  UNL1        0.0898
     20 C         137.9753  140.4363  159.1954 C.3     1  UNL1        0.0375
     21 C         139.1686  141.3147  159.4291 C.ar    1  UNL1       -0.0025
     22 C         140.5363  140.7086  159.5379 C.ar    1  UNL1       -0.0011
     23 C         141.7294  141.5870  159.7716 C.ar    1  UNL1        0.0204
     24 C         141.5549  143.0715  159.8965 C.ar    1  UNL1        0.0989
     25 N         140.1872  143.6777  159.7877 N.ar    1  UNL1       -0.2426
     26 C         138.9940  142.7993  159.5540 C.ar    1  UNL1        0.0946
@<TRIPOS>BOND
     1    15    16    2
     2    16    19    1
     3    19    20    1
     4    20    21    1
     5    21    22   ar
     6    22    23   ar
     7    23    24   ar
     8    24    25   ar
     9    25    26   ar
    10    16    17   am
    11     1    17    1
    12     1     2    1
    13     2     3    1
    14     3     4    1
    15     4     7    1
    16     7     8   ar
    17     8     9   ar
    18     9    10   ar
    19    10    11    1
    20    10    12   ar
    21    12    13   ar
    22     4     5    1
    23     5     6    1
    24    26    21   ar
    25     6     1    1
    26    13     7   ar
    27    17    18    1
    28    11    14    1
@<TRIPOS>MOLECULE
*****
 26 28 0 0 0
SMALL
GASTEIGER

@<TRIPOS>ATOM
      1 C         139.7829  138.5585  164.3013 C.3     1  UNL1        0.0716
      2 C         141.2196  138.5380  164.7320 C.3     1  UNL1        0.0199
      3 C         141.6164  139.1364  166.0490 C.3     1  UNL1        0.0060
      4 C         140.5765  139.7554  166.9353 C.3     1  UNL1        0.0224
      5 C         139.1398  139.7759  166.5046 C.3     1  UNL1        0.0060
      6 C         138.7430  139.1775  165.1876 C.3     1  UNL1        0.0199
      7 C         140.9733  140.3538  168.2522 C.ar    1  UNL1       -0.0223
      8 C         142.4048  140.3042  168.6977 C.ar    1  UNL1       -0.0012
      9 C         142.8015  140.9026  170.0147 C.ar    1  UNL1        0.0363
     10 C         141.7669  141.5507  170.8862 C.ar    1  UNL1        0.1337
     11 O         142.1637  142.1491  172.2032 O.3     1  UNL1       -0.5055
     12 C         140.3354  141.6003  170.4407 C.ar    1  UNL1        0.0363
     13 C         139.9386  141.0019  169.1237 C.ar    1  UNL1       -0.0012
     14 H         143.0579  142.1181  172.4815 H       1  UNL1        0.2922
     15 O         140.1181  140.1391  161.7737 O.2     1  UNL1       -0.2751
     16 C         139.5537  138.7504  161.7205 C.2     1  UNL1        0.2228
     17 N         139.3861  137.9601  162.9843 N.am    1  UNL1       -0.3060
     18 H         139.0157  137.0486  162.9495 H       1  UNL1        0.1494
     19 C         139.1569  138.1520  160.4035 C.3     1  UNL1        0.0898
     20 C         139.5051  138.8549  159.1250 C.3     1  UNL1        0.0375
     21 C         140.5976  138.3190  158.2479 C.ar    1  UNL1       -0.0025
     22 C         140.2552  137.4963  157.0413 C.ar    1  UNL1       -0.0011
     23 C         141.3477  136.9605  156.1643 C.ar    1  UNL1        0.0204
     24 C         142.7826  137.2474  156.4938 C.ar    1  UNL1        0.0989
     25 N         143.1251  138.0701  157.7003 N.ar    1  UNL1       -0.2426
     26 C         142.0326  138.6059  158.5774 C.ar    1  UNL1        0.0946
@<TRIPOS>BOND
     1    15    16    2
     2    16    19    1
     3    19    20    1
     4    20    21    1
     5    21    22   ar
     6    22    23   ar
     7    23    24   ar
     8    24    25   ar
     9    25    26   ar
    10    16    17   am
    11     1    17    1
    12     1     2    1
    13     2     3    1
    14     3     4    1
    15     4     7    1
    16     7     8   ar
    17     8     9   ar
    18     9    10   ar
    19    10    11    1
    20    10    12   ar
    21    12    13   ar
    22     4     5    1
    23     5     6    1
    24    26    21   ar
    25     6     1    1
    26    13     7   ar
    27    17    18    1
    28    11    14    1
@<TRIPOS>MOLECULE
*****
 26 28 0 0 0
SMALL
GASTEIGER

@<TRIPOS>ATOM
      1 C         139.2922  139.8658  163.9081 C.3     1  UNL1        0.0716
      2 C         138.5326  139.3891  165.1105 C.3     1  UNL1        0.0199
      3 C         138.9727  139.7960  166.4855 C.3     1  UNL1        0.0060
      4 C         140.1723  140.6797  166.6582 C.3     1  UNL1        0.0224
      5 C         140.9319  141.1565  165.4558 C.3     1  UNL1        0.0060
      6 C         140.4919  140.7496  164.0807 C.3     1  UNL1        0.0199
      7 C         140.6124  141.0867  168.0332 C.ar    1  UNL1       -0.0223
      8 C         140.7297  140.0577  169.1184 C.ar    1  UNL1       -0.0012
      9 C         141.1698  140.4647  170.4934 C.ar    1  UNL1        0.0363
     10 C         141.4926  141.9005  170.7833 C.ar    1  UNL1        0.1337
     11 O         141.9327  142.3075  172.1584 O.3     1  UNL1       -0.5055
     12 C         141.3753  142.9295  169.6982 C.ar    1  UNL1        0.0363
     13 C         140.9352  142.5226  168.3231 C.ar    1  UNL1       -0.0012
     14 H         142.0059  141.6647  172.8362 H       1  UNL1        0.2922
     15 O         137.1390  141.4119  162.5034 O.2     1  UNL1       -0.2751
     16 C         137.7755  140.2319  161.8307 C.2     1  UNL1        0.2228
     17 N         138.8521  139.4589  162.5330 N.am    1  UNL1       -0.3060
     18 H         139.2699  138.6844  162.0915 H       1  UNL1        0.1494
     19 C         137.3354  139.8250  160.4556 C.3     1  UNL1        0.0898
     20 C         138.0627  140.3443  159.2510 C.3     1  UNL1        0.0375
     21 C         139.4648  139.8919  158.9685 C.ar    1  UNL1       -0.0025
     22 C         140.6272  140.7234  159.4238 C.ar    1  UNL1       -0.0011
     23 C         142.0291  140.2709  159.1413 C.ar    1  UNL1        0.0204
     24 C         142.2686  138.9871  158.4036 C.ar    1  UNL1        0.0989
     25 N         141.1062  138.1556  157.9483 N.ar    1  UNL1       -0.2426
     26 C         139.7042  138.6081  158.2308 C.ar    1  UNL1        0.0946
@<TRIPOS>BOND
     1    15    16    2
     2    16    19    1
     3    19    20    1
     4    20    21    1
     5    21    22   ar
     6    22    23   ar
     7    23    24   ar
     8    24    25   ar
     9    25    26   ar
    10    16    17   am
    11     1    17    1
    12     1     2    1
    13     2     3    1
    14     3     4    1
    15     4     7    1
    16     7     8   ar
    17     8     9   ar
    18     9    10   ar
    19    10    11    1
    20    10    12   ar
    21    12    13   ar
    22     4     5    1
    23     5     6    1
    24    26    21   ar
    25     6     1    1
    26    13     7   ar
    27    17    18    1
    28    11    14    1
