@<TRIPOS>MOLECULE
*****
 31 34 0 0 0
SMALL
GASTEIGER

@<TRIPOS>ATOM
      1 C         141.4483  142.0740  166.2631 C.2     1  UNL1        0.0049
      2 C         140.9547  142.5125  167.6100 C.2     1  UNL1        0.0131
      3 C         141.2318  141.6713  168.8207 C.3     1  UNL1        0.1542
      4 C         140.4612  142.9509  168.9569 C.3     1  UNL1        0.0614
      5 C         139.9676  143.3894  170.3038 C.3     1  UNL1        0.0725
      6 N         140.2447  142.5482  171.5144 N.3     1  UNL1       -0.2972
      7 C         141.0154  141.2686  171.3782 C.3     1  UNL1        0.0725
      8 C         141.5089  140.8302  170.0313 C.3     1  UNL1        0.0614
      9 O         142.0025  140.3916  168.6844 O.3     1  UNL1       -0.4785
     10 C         142.4961  139.9532  167.3375 C.ar    1  UNL1        0.1386
     11 C         143.2668  138.6735  167.2012 C.ar    1  UNL1        0.0369
     12 C         143.7604  138.2351  165.8544 C.ar    1  UNL1        0.0031
     13 C         143.4832  139.0762  164.6437 C.ar    1  UNL1        0.0002
     14 C         142.7126  140.3558  164.7799 C.ar    1  UNL1        0.0030
     15 C         142.2190  140.7943  166.1269 C.ar    1  UNL1        0.0339
     16 H         139.3398  142.3055  171.9177 H       1  UNL1        0.1233
     17 C         140.6170  144.5974  162.6312 C.ar    1  UNL1        0.0566
     18 C         141.9274  144.7257  163.3496 C.ar    1  UNL1        0.0047
     19 C         142.2045  143.8846  164.5602 C.ar    1  UNL1        0.0031
     20 C         141.1712  142.9151  165.0525 C.ar    1  UNL1        0.0336
     21 C         139.8606  142.7868  164.3340 C.ar    1  UNL1        0.1337
     22 O         138.8273  141.8174  164.8263 O.3     1  UNL1       -0.5055
     23 C         139.5835  143.6280  163.1234 C.ar    1  UNL1        0.0411
     24 H         139.0004  141.2919  165.5825 H       1  UNL1        0.2922
     25 N         140.7405  144.9501  160.0601 N.am    1  UNL1       -0.2761
     26 C         140.3398  145.4386  161.4205 C.2     1  UNL1        0.2491
     27 O         139.6620  146.7684  161.5704 O.2     1  UNL1       -0.2699
     28 C         141.4560  145.8385  157.7258 C.3     1  UNL1        0.0233
     29 C         140.4634  145.7912  158.8495 C.3     1  UNL1        0.0938
     30 C         141.4184  143.6203  159.9103 C.3     1  UNL1        0.0938
     31 C         140.6103  142.3989  159.5863 C.3     1  UNL1        0.0233
@<TRIPOS>BOND
     1    28    29    1
     2    29    25    1
     3    25    30    1
     4    30    31    1
     5    25    26   am
     6    26    27    2
     7    26    17    1
     8    17    18   ar
     9    18    19   ar
    10    19    20   ar
    11    20     1    1
    12     1     2    2
    13     2     3    1
    14     3     4    1
    15     4     5    1
    16     5     6    1
    17     6     7    1
    18     7     8    1
    19     3     9    1
    20     9    10    1
    21    10    11   ar
    22    11    12   ar
    23    12    13   ar
    24    13    14   ar
    25    14    15   ar
    26    20    21   ar
    27    21    22    1
    28    21    23   ar
    29    23    17   ar
    30    15     1    1
    31     8     3    1
    32    15    10   ar
    33     6    16    1
    34    22    24    1
@<TRIPOS>MOLECULE
*****
 31 34 0 0 0
SMALL
GASTEIGER

@<TRIPOS>ATOM
      1 C         139.8024  141.8997  165.7520 C.2     1  UNL1        0.0049
      2 C         140.1610  142.4199  167.1125 C.2     1  UNL1        0.0131
      3 C         140.1312  141.5019  168.2983 C.3     1  UNL1        0.1542
      4 C         140.5195  142.9401  168.4729 C.3     1  UNL1        0.0614
      5 C         140.8781  143.4603  169.8333 C.3     1  UNL1        0.0725
      6 N         140.8483  142.5423  171.0192 N.3     1  UNL1       -0.2972
      7 C         140.4601  141.1040  170.8446 C.3     1  UNL1        0.0725
      8 C         140.1015  140.5838  169.4842 C.3     1  UNL1        0.0614
      9 O         139.7429  140.0635  168.1237 O.3     1  UNL1       -0.4785
     10 C         139.3844  139.5433  166.7633 C.ar    1  UNL1        0.1386
     11 C         138.9961  138.1049  166.5887 C.ar    1  UNL1        0.0369
     12 C         138.6375  137.5847  165.2282 C.ar    1  UNL1        0.0031
     13 C         138.6672  138.5028  164.0424 C.ar    1  UNL1        0.0002
     14 C         139.0555  139.9411  164.2170 C.ar    1  UNL1        0.0030
     15 C         139.4141  140.4614  165.5774 C.ar    1  UNL1        0.0339
     16 H         140.1916  142.9455  171.6873 H       1  UNL1        0.1233
     17 C         139.8916  144.6539  162.1944 C.ar    1  UNL1        0.0566
     18 C         138.5926  144.3640  162.8861 C.ar    1  UNL1        0.0047
     19 C         138.5628  143.4459  164.0720 C.ar    1  UNL1        0.0031
     20 C         139.8321  142.8177  164.5661 C.ar    1  UNL1        0.0336
     21 C         141.1312  143.1076  163.8745 C.ar    1  UNL1        0.1337
     22 O         142.4005  142.4795  164.3687 O.3     1  UNL1       -0.5055
     23 C         141.1610  144.0257  162.6886 C.ar    1  UNL1        0.0411
     24 H         142.3819  141.9060  165.1094 H       1  UNL1        0.2922
     25 N         140.2097  145.0236  159.6426 N.am    1  UNL1       -0.2761
     26 C         139.9213  145.5720  161.0086 C.2     1  UNL1        0.2491
     27 O         139.6626  147.0385  161.1888 O.2     1  UNL1       -0.2699
     28 C         141.4215  145.9359  157.5332 C.3     1  UNL1        0.0233
     29 C         140.2395  145.9417  158.4567 C.3     1  UNL1        0.0938
     30 C         140.4685  143.5571  159.4624 C.3     1  UNL1        0.0938
     31 C         139.3281  142.6228  159.1855 C.3     1  UNL1        0.0233
@<TRIPOS>BOND
     1    28    29    1
     2    29    25    1
     3    25    30    1
     4    30    31    1
     5    25    26   am
     6    26    27    2
     7    26    17    1
     8    17    18   ar
     9    18    19   ar
    10    19    20   ar
    11    20     1    1
    12     1     2    2
    13     2     3    1
    14     3     4    1
    15     4     5    1
    16     5     6    1
    17     6     7    1
    18     7     8    1
    19     3     9    1
    20     9    10    1
    21    10    11   ar
    22    11    12   ar
    23    12    13   ar
    24    13    14   ar
    25    14    15   ar
    26    20    21   ar
    27    21    22    1
    28    21    23   ar
    29    23    17   ar
    30    15     1    1
    31     8     3    1
    32    15    10   ar
    33     6    16    1
    34    22    24    1
@<TRIPOS>MOLECULE
*****
 31 34 0 0 0
SMALL
GASTEIGER

@<TRIPOS>ATOM
      1 C         141.4998  140.9563  166.3145 C.2     1  UNL1        0.0049
      2 C         142.1226  141.5791  167.5288 C.2     1  UNL1        0.0131
      3 C         141.4824  141.4029  168.8739 C.3     1  UNL1        0.1542
      4 C         142.7452  142.2017  168.7431 C.3     1  UNL1        0.0614
      5 C         143.3679  142.8244  169.9574 C.3     1  UNL1        0.0725
      6 N         142.7278  142.6482  171.3024 N.3     1  UNL1       -0.2972
      7 C         141.4650  141.8494  171.4332 C.3     1  UNL1        0.0725
      8 C         140.8423  141.2267  170.2190 C.3     1  UNL1        0.0614
      9 O         140.2196  140.6039  169.0046 O.3     1  UNL1       -0.4785
     10 C         139.5969  139.9813  167.7904 C.ar    1  UNL1        0.1386
     11 C         138.3341  139.1823  167.9211 C.ar    1  UNL1        0.0369
     12 C         137.7114  138.5597  166.7068 C.ar    1  UNL1        0.0031
     13 C         138.3515  138.7359  165.3618 C.ar    1  UNL1        0.0002
     14 C         139.6143  139.5347  165.2310 C.ar    1  UNL1        0.0030
     15 C         140.2370  140.1575  166.4453 C.ar    1  UNL1        0.0339
     16 H         142.5228  143.5829  171.6557 H       1  UNL1        0.1233
     17 C         143.4202  141.4849  162.2793 C.ar    1  UNL1        0.0566
     18 C         143.8950  140.3997  163.1995 C.ar    1  UNL1        0.0047
     19 C         143.2549  140.2235  164.5446 C.ar    1  UNL1        0.0031
     20 C         142.1399  141.1325  164.9694 C.ar    1  UNL1        0.0336
     21 C         141.6650  142.2177  164.0492 C.ar    1  UNL1        0.1337
     22 O         140.5500  143.1267  164.4740 O.3     1  UNL1       -0.5055
     23 C         142.3051  142.3939  162.7041 C.ar    1  UNL1        0.0411
     24 H         140.1502  143.0166  165.3142 H       1  UNL1        0.2922
     25 N         143.5885  140.8462  159.7666 N.am    1  UNL1       -0.2761
     26 C         144.0603  141.6611  160.9342 C.2     1  UNL1        0.2491
     27 O         145.1722  142.6522  160.7568 O.2     1  UNL1       -0.2699
     28 C         143.8091  142.1566  157.5340 C.3     1  UNL1        0.0233
     29 C         144.2286  141.0224  158.4215 C.3     1  UNL1        0.0938
     30 C         142.4766  139.8551  159.9440 C.3     1  UNL1        0.0938
     31 C         142.7464  138.3884  159.7826 C.3     1  UNL1        0.0233
@<TRIPOS>BOND
     1    28    29    1
     2    29    25    1
     3    25    30    1
     4    30    31    1
     5    25    26   am
     6    26    27    2
     7    26    17    1
     8    17    18   ar
     9    18    19   ar
    10    19    20   ar
    11    20     1    1
    12     1     2    2
    13     2     3    1
    14     3     4    1
    15     4     5    1
    16     5     6    1
    17     6     7    1
    18     7     8    1
    19     3     9    1
    20     9    10    1
    21    10    11   ar
    22    11    12   ar
    23    12    13   ar
    24    13    14   ar
    25    14    15   ar
    26    20    21   ar
    27    21    22    1
    28    21    23   ar
    29    23    17   ar
    30    15     1    1
    31     8     3    1
    32    15    10   ar
    33     6    16    1
    34    22    24    1
@<TRIPOS>MOLECULE
*****
 31 34 0 0 0
SMALL
GASTEIGER

@<TRIPOS>ATOM
      1 C         141.5329  140.5139  166.1110 C.2     1  UNL1        0.0049
      2 C         142.2936  141.2287  167.1883 C.2     1  UNL1        0.0131
      3 C         141.7438  141.2858  168.5828 C.3     1  UNL1        0.1542
      4 C         143.0541  141.9434  168.2656 C.3     1  UNL1        0.0614
      5 C         143.8147  142.6582  169.3429 C.3     1  UNL1        0.0725
      6 N         143.2649  142.7154  170.7374 N.3     1  UNL1       -0.2972
      7 C         141.9546  142.0578  171.0545 C.3     1  UNL1        0.0725
      8 C         141.1941  141.3430  169.9772 C.3     1  UNL1        0.0614
      9 O         140.4334  140.6282  168.8999 O.3     1  UNL1       -0.4785
     10 C         139.6729  139.9134  167.8226 C.ar    1  UNL1        0.1386
     11 C         138.3625  139.2558  168.1397 C.ar    1  UNL1        0.0369
     12 C         137.6020  138.5410  167.0624 C.ar    1  UNL1        0.0031
     13 C         138.1517  138.4838  165.6680 C.ar    1  UNL1        0.0002
     14 C         139.4620  139.1414  165.3508 C.ar    1  UNL1        0.0030
     15 C         140.2226  139.8563  166.4282 C.ar    1  UNL1        0.0339
     16 H         143.1638  143.7024  170.9738 H       1  UNL1        0.1233
     17 C         143.1821  140.3423  161.9276 C.ar    1  UNL1        0.0566
     18 C         141.9752  141.1822  162.2241 C.ar    1  UNL1        0.0047
     19 C         141.4255  141.2393  163.6186 C.ar    1  UNL1        0.0031
     20 C         142.0827  140.4567  164.7165 C.ar    1  UNL1        0.0336
     21 C         143.2897  139.6168  164.4200 C.ar    1  UNL1        0.1337
     22 O         143.9469  138.8342  165.5180 O.3     1  UNL1       -0.5055
     23 C         143.8394  139.5597  163.0256 C.ar    1  UNL1        0.0411
     24 H         143.6035  138.8699  166.3890 H       1  UNL1        0.2922
     25 N         143.8837  141.5458  159.7346 N.am    1  UNL1       -0.2761
     26 C         143.7319  140.2852  160.5331 C.2     1  UNL1        0.2491
     27 O         144.1298  138.9673  159.9373 O.2     1  UNL1       -0.2699
     28 C         145.4968  142.4566  157.9129 C.3     1  UNL1        0.0233
     29 C         144.4335  141.4886  158.3401 C.3     1  UNL1        0.0938
     30 C         143.4859  142.8637  160.3305 C.3     1  UNL1        0.0938
     31 C         142.4414  143.7054  159.6594 C.3     1  UNL1        0.0233
@<TRIPOS>BOND
     1    28    29    1
     2    29    25    1
     3    25    30    1
     4    30    31    1
     5    25    26   am
     6    26    27    2
     7    26    17    1
     8    17    18   ar
     9    18    19   ar
    10    19    20   ar
    11    20     1    1
    12     1     2    2
    13     2     3    1
    14     3     4    1
    15     4     5    1
    16     5     6    1
    17     6     7    1
    18     7     8    1
    19     3     9    1
    20     9    10    1
    21    10    11   ar
    22    11    12   ar
    23    12    13   ar
    24    13    14   ar
    25    14    15   ar
    26    20    21   ar
    27    21    22    1
    28    21    23   ar
    29    23    17   ar
    30    15     1    1
    31     8     3    1
    32    15    10   ar
    33     6    16    1
    34    22    24    1
@<TRIPOS>MOLECULE
*****
 31 34 0 0 0
SMALL
GASTEIGER

@<TRIPOS>ATOM
      1 C         140.3913  142.3897  161.4823 C.2     1  UNL1        0.0049
      2 C         141.8671  142.1224  161.5094 C.2     1  UNL1        0.0131
      3 C         142.6864  142.5566  162.6885 C.3     1  UNL1        0.1542
      4 C         143.3428  141.8551  161.5366 C.3     1  UNL1        0.0614
      5 C         144.8185  141.5878  161.5637 C.3     1  UNL1        0.0725
      6 N         145.6378  142.0220  162.7428 N.3     1  UNL1       -0.2972
      7 C         144.9814  142.7234  163.8948 C.3     1  UNL1        0.0725
      8 C         143.5057  142.9907  163.8676 C.3     1  UNL1        0.0614
      9 O         142.0299  143.2580  163.8405 O.3     1  UNL1       -0.4785
     10 C         140.5542  143.5253  163.8134 C.ar    1  UNL1        0.1386
     11 C         139.8977  144.2268  164.9654 C.ar    1  UNL1        0.0369
     12 C         138.4220  144.4941  164.9383 C.ar    1  UNL1        0.0031
     13 C         137.6027  144.0599  163.7592 C.ar    1  UNL1        0.0002
     14 C         138.2591  143.3585  162.6072 C.ar    1  UNL1        0.0030
     15 C         139.7349  143.0912  162.6343 C.ar    1  UNL1        0.0339
     16 H         146.3569  142.6512  162.3860 H       1  UNL1        0.1233
     17 C         137.9334  141.0873  157.9450 C.ar    1  UNL1        0.0566
     18 C         138.3199  140.0909  158.9975 C.ar    1  UNL1        0.0047
     19 C         139.1392  140.5250  160.1766 C.ar    1  UNL1        0.0031
     20 C         139.5720  141.9556  160.3032 C.ar    1  UNL1        0.0336
     21 C         139.1855  142.9521  159.2508 C.ar    1  UNL1        0.1337
     22 O         139.6183  144.3827  159.3774 O.3     1  UNL1       -0.5055
     23 C         138.3662  142.5180  158.0717 C.ar    1  UNL1        0.0411
     24 H         140.1301  144.6539  160.1140 H       1  UNL1        0.2922
     25 N         137.7910  140.2575  155.4872 N.am    1  UNL1       -0.2761
     26 C         137.1141  140.6532  156.7659 C.2     1  UNL1        0.2491
     27 O         135.6179  140.6147  156.8656 O.2     1  UNL1       -0.2699
     28 C         136.5865  138.3821  154.1523 C.3     1  UNL1        0.0233
     29 C         136.9717  139.8234  154.3081 C.3     1  UNL1        0.0938
     30 C         139.2872  140.2960  155.3875 C.3     1  UNL1        0.0938
     31 C         140.0897  139.0606  155.6696 C.3     1  UNL1        0.0233
@<TRIPOS>BOND
     1    28    29    1
     2    29    25    1
     3    25    30    1
     4    30    31    1
     5    25    26   am
     6    26    27    2
     7    26    17    1
     8    17    18   ar
     9    18    19   ar
    10    19    20   ar
    11    20     1    1
    12     1     2    2
    13     2     3    1
    14     3     4    1
    15     4     5    1
    16     5     6    1
    17     6     7    1
    18     7     8    1
    19     3     9    1
    20     9    10    1
    21    10    11   ar
    22    11    12   ar
    23    12    13   ar
    24    13    14   ar
    25    14    15   ar
    26    20    21   ar
    27    21    22    1
    28    21    23   ar
    29    23    17   ar
    30    15     1    1
    31     8     3    1
    32    15    10   ar
    33     6    16    1
    34    22    24    1
@<TRIPOS>MOLECULE
*****
 31 34 0 0 0
SMALL
GASTEIGER

@<TRIPOS>ATOM
      1 C         142.0954  141.5824  166.2428 C.2     1  UNL1        0.0049
      2 C         141.4396  142.3294  167.3662 C.2     1  UNL1        0.0131
      3 C         141.4188  141.7419  168.7462 C.3     1  UNL1        0.1542
      4 C         140.7838  143.0764  168.4895 C.3     1  UNL1        0.0614
      5 C         140.1280  143.8234  169.6129 C.3     1  UNL1        0.0725
      6 N         140.1072  143.2359  170.9929 N.3     1  UNL1       -0.2972
      7 C         140.7423  141.9014  171.2496 C.3     1  UNL1        0.0725
      8 C         141.3981  141.1545  170.1262 C.3     1  UNL1        0.0614
      9 O         142.0539  140.4074  169.0029 O.3     1  UNL1       -0.4785
     10 C         142.7097  139.6604  167.8795 C.ar    1  UNL1        0.1386
     11 C         143.3447  138.3259  168.1362 C.ar    1  UNL1        0.0369
     12 C         144.0005  137.5789  167.0129 C.ar    1  UNL1        0.0031
     13 C         144.0213  138.1664  165.6328 C.ar    1  UNL1        0.0002
     14 C         143.3863  139.5008  165.3762 C.ar    1  UNL1        0.0030
     15 C         142.7304  140.2479  166.4995 C.ar    1  UNL1        0.0339
     16 H         139.1271  143.1523  171.2626 H       1  UNL1        0.1233
     17 C         142.1577  143.3448  162.1028 C.ar    1  UNL1        0.0566
     18 C         141.0653  142.3957  162.4976 C.ar    1  UNL1        0.0047
     19 C         141.0445  141.8083  163.8776 C.ar    1  UNL1        0.0031
     20 C         142.1162  142.1698  164.8628 C.ar    1  UNL1        0.0336
     21 C         143.2087  143.1189  164.4681 C.ar    1  UNL1        0.1337
     22 O         144.2803  143.4805  165.4533 O.3     1  UNL1       -0.5055
     23 C         143.2294  143.7064  163.0881 C.ar    1  UNL1        0.0411
     24 H         144.2673  143.1135  166.3154 H       1  UNL1        0.2922
     25 N         141.0422  144.7938  160.2572 N.am    1  UNL1       -0.2761
     26 C         142.1784  143.9322  160.7228 C.2     1  UNL1        0.2491
     27 O         143.3355  143.6581  159.8083 O.2     1  UNL1       -0.2699
     28 C         140.1550  144.8346  157.8157 C.3     1  UNL1        0.0233
     29 C         141.0630  145.3813  158.8772 C.3     1  UNL1        0.0938
     30 C         139.8852  145.0679  161.1717 C.3     1  UNL1        0.0938
     31 C         139.8787  146.3025  162.0236 C.3     1  UNL1        0.0233
@<TRIPOS>BOND
     1    28    29    1
     2    29    25    1
     3    25    30    1
     4    30    31    1
     5    25    26   am
     6    26    27    2
     7    26    17    1
     8    17    18   ar
     9    18    19   ar
    10    19    20   ar
    11    20     1    1
    12     1     2    2
    13     2     3    1
    14     3     4    1
    15     4     5    1
    16     5     6    1
    17     6     7    1
    18     7     8    1
    19     3     9    1
    20     9    10    1
    21    10    11   ar
    22    11    12   ar
    23    12    13   ar
    24    13    14   ar
    25    14    15   ar
    26    20    21   ar
    27    21    22    1
    28    21    23   ar
    29    23    17   ar
    30    15     1    1
    31     8     3    1
    32    15    10   ar
    33     6    16    1
    34    22    24    1
@<TRIPOS>MOLECULE
*****
 31 34 0 0 0
SMALL
GASTEIGER

@<TRIPOS>ATOM
      1 C         140.2515  142.0386  162.3896 C.2     1  UNL1        0.0049
      2 C         140.6018  143.1623  161.4597 C.2     1  UNL1        0.0131
      3 C         140.0100  143.2080  160.0821 C.3     1  UNL1        0.1542
      4 C         140.9521  144.2859  160.5298 C.3     1  UNL1        0.0614
      5 C         141.3025  145.4095  159.5999 C.3     1  UNL1        0.0725
      6 N         140.7107  145.4553  158.2224 N.3     1  UNL1       -0.2972
      7 C         139.7685  144.3773  157.7747 C.3     1  UNL1        0.0725
      8 C         139.4182  143.2537  158.7045 C.3     1  UNL1        0.0614
      9 O         139.0679  142.1300  159.6344 O.3     1  UNL1       -0.4785
     10 C         138.7175  141.0064  160.5643 C.ar    1  UNL1        0.1386
     11 C         137.7754  139.9284  160.1166 C.ar    1  UNL1        0.0369
     12 C         137.4251  138.8048  161.0465 C.ar    1  UNL1        0.0031
     13 C         138.0169  138.7591  162.4241 C.ar    1  UNL1        0.0002
     14 C         138.9590  139.8370  162.8718 C.ar    1  UNL1        0.0030
     15 C         139.3093  140.9607  161.9419 C.ar    1  UNL1        0.0339
     16 H         141.4916  145.4549  157.5663 H       1  UNL1        0.1233
     17 C         142.0269  141.9015  166.5223 C.ar    1  UNL1        0.0566
     18 C         140.7908  142.7108  166.2635 C.ar    1  UNL1        0.0047
     19 C         140.1990  142.7565  164.8859 C.ar    1  UNL1        0.0031
     20 C         140.8433  141.9929  163.7671 C.ar    1  UNL1        0.0336
     21 C         142.0794  141.1835  164.0259 C.ar    1  UNL1        0.1337
     22 O         142.7237  140.4198  162.9071 O.3     1  UNL1       -0.5055
     23 C         142.6712  141.1377  165.4035 C.ar    1  UNL1        0.0411
     24 H         142.3540  140.4484  162.0466 H       1  UNL1        0.2922
     25 N         142.0869  140.8856  168.9127 N.am    1  UNL1       -0.2761
     26 C         142.6187  141.8557  167.8998 C.2     1  UNL1        0.2491
     27 O         143.7422  142.7803  168.2645 O.2     1  UNL1       -0.2699
     28 C         141.8960  141.3578  171.4604 C.3     1  UNL1        0.0233
     29 C         142.6787  140.8399  170.2903 C.3     1  UNL1        0.0938
     30 C         140.9634  139.9611  168.5481 C.3     1  UNL1        0.0938
     31 C         139.5511  140.3202  168.9037 C.3     1  UNL1        0.0233
@<TRIPOS>BOND
     1    28    29    1
     2    29    25    1
     3    25    30    1
     4    30    31    1
     5    25    26   am
     6    26    27    2
     7    26    17    1
     8    17    18   ar
     9    18    19   ar
    10    19    20   ar
    11    20     1    1
    12     1     2    2
    13     2     3    1
    14     3     4    1
    15     4     5    1
    16     5     6    1
    17     6     7    1
    18     7     8    1
    19     3     9    1
    20     9    10    1
    21    10    11   ar
    22    11    12   ar
    23    12    13   ar
    24    13    14   ar
    25    14    15   ar
    26    20    21   ar
    27    21    22    1
    28    21    23   ar
    29    23    17   ar
    30    15     1    1
    31     8     3    1
    32    15    10   ar
    33     6    16    1
    34    22    24    1
@<TRIPOS>MOLECULE
*****
 31 34 0 0 0
SMALL
GASTEIGER

@<TRIPOS>ATOM
      1 C         140.7404  142.7061  161.1499 C.2     1  UNL1        0.0049
      2 C         141.9225  141.7935  161.2918 C.2     1  UNL1        0.0131
      3 C         142.1633  141.0739  162.5856 C.3     1  UNL1        0.1542
      4 C         143.1045  140.8810  161.4337 C.3     1  UNL1        0.0614
      5 C         144.2865  139.9685  161.5756 C.3     1  UNL1        0.0725
      6 N         144.5273  139.2489  162.8694 N.3     1  UNL1       -0.2972
      7 C         143.5862  139.4417  164.0214 C.3     1  UNL1        0.0725
      8 C         142.4042  140.3542  163.8795 C.3     1  UNL1        0.0614
      9 O         141.2221  141.2667  163.7376 O.3     1  UNL1       -0.4785
     10 C         140.0401  142.1793  163.5957 C.ar    1  UNL1        0.1386
     11 C         139.0989  142.3721  164.7477 C.ar    1  UNL1        0.0369
     12 C         137.9169  143.2846  164.6058 C.ar    1  UNL1        0.0031
     13 C         137.6761  144.0043  163.3119 C.ar    1  UNL1        0.0002
     14 C         138.6172  143.8115  162.1600 C.ar    1  UNL1        0.0030
     15 C         139.7993  142.8989  162.3018 C.ar    1  UNL1        0.0339
     16 H         145.4523  139.5297  163.1948 H       1  UNL1        0.1233
     17 C         140.0178  144.8651  157.2683 C.ar    1  UNL1        0.0566
     18 C         139.5327  143.4568  157.4448 C.ar    1  UNL1        0.0047
     19 C         139.7735  142.7371  158.7387 C.ar    1  UNL1        0.0031
     20 C         140.4996  143.4258  159.8560 C.ar    1  UNL1        0.0336
     21 C         140.9848  144.8342  159.6796 C.ar    1  UNL1        0.1337
     22 O         141.7108  145.5228  160.7970 O.3     1  UNL1       -0.5055
     23 C         140.7439  145.5538  158.3857 C.ar    1  UNL1        0.0411
     24 H         141.8613  145.0732  161.6052 H       1  UNL1        0.2922
     25 N         140.8898  145.7315  154.9794 N.am    1  UNL1       -0.2761
     26 C         139.7770  145.5848  155.9745 C.2     1  UNL1        0.2491
     27 O         138.4233  146.1578  155.6757 O.2     1  UNL1       -0.2699
     28 C         140.5089  147.9446  153.6728 C.3     1  UNL1        0.0233
     29 C         140.6489  146.4511  153.6856 C.3     1  UNL1        0.0938
     30 C         142.2435  145.1584  155.2782 C.3     1  UNL1        0.0938
     31 C         142.5967  143.7809  154.8013 C.3     1  UNL1        0.0233
@<TRIPOS>BOND
     1    28    29    1
     2    29    25    1
     3    25    30    1
     4    30    31    1
     5    25    26   am
     6    26    27    2
     7    26    17    1
     8    17    18   ar
     9    18    19   ar
    10    19    20   ar
    11    20     1    1
    12     1     2    2
    13     2     3    1
    14     3     4    1
    15     4     5    1
    16     5     6    1
    17     6     7    1
    18     7     8    1
    19     3     9    1
    20     9    10    1
    21    10    11   ar
    22    11    12   ar
    23    12    13   ar
    24    13    14   ar
    25    14    15   ar
    26    20    21   ar
    27    21    22    1
    28    21    23   ar
    29    23    17   ar
    30    15     1    1
    31     8     3    1
    32    15    10   ar
    33     6    16    1
    34    22    24    1
@<TRIPOS>MOLECULE
*****
 31 34 0 0 0
SMALL
GASTEIGER

@<TRIPOS>ATOM
      1 C         141.3356  140.2996  166.2486 C.2     1  UNL1        0.0049
      2 C         142.1952  141.0969  167.1843 C.2     1  UNL1        0.0131
      3 C         141.7513  141.3266  168.5986 C.3     1  UNL1        0.1542
      4 C         143.0547  141.8942  168.1200 C.3     1  UNL1        0.0614
      5 C         143.9141  142.6915  169.0557 C.3     1  UNL1        0.0725
      6 N         143.4703  142.9212  170.4700 N.3     1  UNL1       -0.2972
      7 C         142.1669  142.3536  170.9486 C.3     1  UNL1        0.0725
      8 C         141.3074  141.5563  170.0129 C.3     1  UNL1        0.0614
      9 O         140.4479  140.7590  169.0772 O.3     1  UNL1       -0.4785
     10 C         139.5884  139.9617  168.1414 C.ar    1  UNL1        0.1386
     11 C         138.2850  139.3940  168.6200 C.ar    1  UNL1        0.0369
     12 C         137.4256  138.5967  167.6843 C.ar    1  UNL1        0.0031
     13 C         137.8694  138.3670  166.2700 C.ar    1  UNL1        0.0002
     14 C         139.1728  138.9346  165.7914 C.ar    1  UNL1        0.0030
     15 C         140.0323  139.7320  166.7272 C.ar    1  UNL1        0.0339
     16 H         143.4176  143.9313  170.6017 H       1  UNL1        0.1233
     17 C         142.6673  139.6105  162.0057 C.ar    1  UNL1        0.0566
     18 C         141.9770  140.8895  162.3768 C.ar    1  UNL1        0.0047
     19 C         141.5331  141.1192  163.7911 C.ar    1  UNL1        0.0031
     20 C         141.7795  140.0699  164.8343 C.ar    1  UNL1        0.0336
     21 C         142.4698  138.7909  164.4632 C.ar    1  UNL1        0.1337
     22 O         142.7162  137.7416  165.5064 O.3     1  UNL1       -0.5055
     23 C         142.9137  138.5612  163.0489 C.ar    1  UNL1        0.0411
     24 H         142.4389  137.8851  166.3898 H       1  UNL1        0.2922
     25 N         142.1030  139.3738  159.4807 N.am    1  UNL1       -0.2761
     26 C         143.1111  139.3809  160.5914 C.2     1  UNL1        0.2491
     27 O         144.5632  139.1582  160.2878 O.2     1  UNL1       -0.2699
     28 C         142.6799  137.7459  157.5398 C.3     1  UNL1        0.0233
     29 C         142.5469  139.1441  158.0664 C.3     1  UNL1        0.0938
     30 C         140.6510  139.5965  159.7843 C.3     1  UNL1        0.0938
     31 C         139.7675  138.4314  160.1188 C.3     1  UNL1        0.0233
@<TRIPOS>BOND
     1    28    29    1
     2    29    25    1
     3    25    30    1
     4    30    31    1
     5    25    26   am
     6    26    27    2
     7    26    17    1
     8    17    18   ar
     9    18    19   ar
    10    19    20   ar
    11    20     1    1
    12     1     2    2
    13     2     3    1
    14     3     4    1
    15     4     5    1
    16     5     6    1
    17     6     7    1
    18     7     8    1
    19     3     9    1
    20     9    10    1
    21    10    11   ar
    22    11    12   ar
    23    12    13   ar
    24    13    14   ar
    25    14    15   ar
    26    20    21   ar
    27    21    22    1
    28    21    23   ar
    29    23    17   ar
    30    15     1    1
    31     8     3    1
    32    15    10   ar
    33     6    16    1
    34    22    24    1
