@<TRIPOS>MOLECULE
*****
 32 35 0 0 0
SMALL
GASTEIGER

@<TRIPOS>ATOM
      1 C         142.7063  138.0927  159.3240 C.ar    1  UNL1        0.1386
      2 C         143.4884  137.5678  160.4913 C.ar    1  UNL1        0.0382
      3 C         143.0600  137.8977  161.8904 C.ar    1  UNL1        0.0180
      4 C         141.8495  138.7527  162.1222 C.ar    1  UNL1        0.0541
      5 C         141.0674  139.2776  160.9549 C.ar    1  UNL1        0.0180
      6 C         141.4958  138.9476  159.5558 C.ar    1  UNL1        0.0382
      7 N         141.4211  139.0826  163.5214 N.am    1  UNL1       -0.2555
      8 C         142.2420  140.0207  164.3556 C.3     1  UNL1        0.1197
      9 C         141.8136  140.3507  165.7548 C.3     1  UNL1        0.1160
     10 N         140.5642  139.7425  166.3197 N.am    1  UNL1       -0.2660
     11 C         140.1358  140.0724  167.7188 C.2     1  UNL1        0.2494
     12 O         138.8864  139.4643  168.2837 O.2     1  UNL1       -0.2699
     13 C         139.7432  138.8044  165.4854 C.3     1  UNL1        0.1799
     14 C         140.1716  138.4745  164.0863 C.2     1  UNL1        0.2497
     15 O         139.3506  137.5364  163.2520 O.2     1  UNL1       -0.2727
     16 C         140.9568  141.0105  168.5530 C.ar    1  UNL1        0.0537
     17 C         142.2717  140.5585  169.1158 C.ar    1  UNL1        0.0068
     18 C         143.0927  141.4966  169.9501 C.ar    1  UNL1        0.0298
     19 C         142.5988  142.8867  170.2215 C.ar    1  UNL1        0.1401
     20 F         143.4198  143.8248  171.0557 F       1  UNL1       -0.2042
     21 C         141.2839  143.3387  169.6587 C.ar    1  UNL1        0.0298
     22 C         140.4629  142.4006  168.8245 C.ar    1  UNL1        0.0068
     23 O         143.1347  137.7627  157.9248 O.3     1  UNL1       -0.4754
     24 C         142.2582  136.9137  157.0526 C.3     1  UNL1        0.2068
     25 C         142.8651  135.8422  156.1959 C.3     1  UNL1        0.0646
     26 C         142.4868  134.4066  156.4102 C.3     1  UNL1        0.0759
     27 C         143.3262  131.9618  154.4183 C.3     1  UNL1        0.0173
     28 C         143.9363  132.2581  155.7562 C.3     1  UNL1        0.0576
     29 C         145.0393  131.4826  156.4134 C.3     1  UNL1        0.0174
     30 C         145.3352  132.1271  157.7353 C.3     1  UNL1        0.0187
     31 C         144.4150  133.3009  157.8949 C.3     1  UNL1        0.0721
     32 N         143.5504  133.3819  156.6718 N.3     1  UNL1       -0.2738
@<TRIPOS>BOND
     1    28    27    1
     2    28    29    1
     3    29    30    1
     4    30    31    1
     5    31    32    1
     6    32    26    1
     7    26    25    1
     8    25    24    1
     9    24    23    1
    10    23     1    1
    11     1     2   ar
    12     2     3   ar
    13     3     4   ar
    14     4     7    1
    15     7     8    1
    16     8     9    1
    17     9    10    1
    18    10    11   am
    19    11    12    2
    20    11    16    1
    21    16    17   ar
    22    17    18   ar
    23    18    19   ar
    24    19    20    1
    25    19    21   ar
    26    21    22   ar
    27    10    13    1
    28    13    14    1
    29    14    15    2
    30     4     5   ar
    31     5     6   ar
    32    32    28    1
    33     6     1   ar
    34    14     7   am
    35    22    16   ar
@<TRIPOS>MOLECULE
*****
 32 35 0 0 0
SMALL
GASTEIGER

@<TRIPOS>ATOM
      1 C         138.9571  139.6523  167.1983 C.ar    1  UNL1        0.1386
      2 C         139.4685  140.8628  166.4751 C.ar    1  UNL1        0.0382
      3 C         139.4965  140.8844  164.9756 C.ar    1  UNL1        0.0180
      4 C         139.0132  139.6954  164.1992 C.ar    1  UNL1        0.0541
      5 C         138.5018  138.4849  164.9223 C.ar    1  UNL1        0.0180
      6 C         138.4738  138.4633  166.4219 C.ar    1  UNL1        0.0382
      7 N         139.0412  139.7171  162.6995 N.am    1  UNL1       -0.2555
      8 C         140.0919  138.9451  161.9579 C.3     1  UNL1        0.1197
      9 C         140.1199  138.9668  160.4582 C.3     1  UNL1        0.1160
     10 N         139.0973  139.7604  159.7004 N.am    1  UNL1       -0.2660
     11 C         139.1253  139.7821  158.2008 C.2     1  UNL1        0.2494
     12 O         138.1026  140.5757  157.4430 O.2     1  UNL1       -0.2699
     13 C         138.0466  140.5324  160.4421 C.3     1  UNL1        0.1799
     14 C         138.0186  140.5107  161.9417 C.2     1  UNL1        0.2497
     15 O         136.9679  141.2827  162.6835 O.2     1  UNL1       -0.2727
     16 C         140.1759  139.0101  157.4591 C.ar    1  UNL1        0.0537
     17 C         139.9070  137.5978  157.0312 C.ar    1  UNL1        0.0068
     18 C         140.9577  136.8259  156.2895 C.ar    1  UNL1        0.0298
     19 C         142.2773  137.4662  155.9757 C.ar    1  UNL1        0.1401
     20 F         143.3280  136.6942  155.2340 F       1  UNL1       -0.2042
     21 C         142.5463  138.8785  156.4036 C.ar    1  UNL1        0.0298
     22 C         141.4957  139.6504  157.1453 C.ar    1  UNL1        0.0068
     23 O         138.9291  139.6306  168.6979 O.3     1  UNL1       -0.4754
     24 C         139.9709  140.3758  169.4784 C.3     1  UNL1        0.2068
     25 C         141.1612  139.6464  170.0273 C.3     1  UNL1        0.0646
     26 C         142.3655  139.4184  169.1626 C.3     1  UNL1        0.0759
     27 C         142.6469  138.6251  166.0097 C.3     1  UNL1        0.0173
     28 C         142.8016  139.9995  166.5903 C.3     1  UNL1        0.0576
     29 C         143.1128  141.2506  165.8236 C.3     1  UNL1        0.0174
     30 C         143.1758  142.3885  166.7989 C.3     1  UNL1        0.0187
     31 C         142.9035  141.8406  168.1685 C.3     1  UNL1        0.0721
     32 N         142.6722  140.3641  168.0395 N.3     1  UNL1       -0.2738
@<TRIPOS>BOND
     1    28    27    1
     2    28    29    1
     3    29    30    1
     4    30    31    1
     5    31    32    1
     6    32    26    1
     7    26    25    1
     8    25    24    1
     9    24    23    1
    10    23     1    1
    11     1     2   ar
    12     2     3   ar
    13     3     4   ar
    14     4     7    1
    15     7     8    1
    16     8     9    1
    17     9    10    1
    18    10    11   am
    19    11    12    2
    20    11    16    1
    21    16    17   ar
    22    17    18   ar
    23    18    19   ar
    24    19    20    1
    25    19    21   ar
    26    21    22   ar
    27    10    13    1
    28    13    14    1
    29    14    15    2
    30     4     5   ar
    31     5     6   ar
    32    32    28    1
    33     6     1   ar
    34    14     7   am
    35    22    16   ar
@<TRIPOS>MOLECULE
*****
 32 35 0 0 0
SMALL
GASTEIGER

@<TRIPOS>ATOM
      1 C         139.4374  141.7697  158.8379 C.ar    1  UNL1        0.1386
      2 C         140.4765  140.8608  159.4244 C.ar    1  UNL1        0.0382
      3 C         140.5409  140.6547  160.9088 C.ar    1  UNL1        0.0180
      4 C         139.5662  141.3574  161.8066 C.ar    1  UNL1        0.0541
      5 C         138.5271  142.2664  161.2200 C.ar    1  UNL1        0.0180
      6 C         138.4627  142.4725  159.7357 C.ar    1  UNL1        0.0382
      7 N         139.6306  141.1513  163.2910 N.am    1  UNL1       -0.2555
      8 C         140.5684  141.9751  164.1226 C.3     1  UNL1        0.1197
      9 C         140.6328  141.7690  165.6070 C.3     1  UNL1        0.1160
     10 N         139.7594  140.7389  166.2597 N.am    1  UNL1       -0.2660
     11 C         139.8237  140.5327  167.7441 C.2     1  UNL1        0.2494
     12 O         138.9503  139.5026  168.3968 O.2     1  UNL1       -0.2699
     13 C         138.8215  139.9149  165.4280 C.3     1  UNL1        0.1799
     14 C         138.7571  140.1212  163.9437 C.2     1  UNL1        0.2497
     15 O         137.8193  139.2972  163.1120 O.2     1  UNL1       -0.2727
     16 C         140.7615  141.3565  168.5757 C.ar    1  UNL1        0.0537
     17 C         140.3024  142.6632  169.1517 C.ar    1  UNL1        0.0068
     18 C         141.2403  143.4871  169.9834 C.ar    1  UNL1        0.0298
     19 C         142.6373  143.0043  170.2390 C.ar    1  UNL1        0.1401
     20 F         143.5751  143.8282  171.0706 F       1  UNL1       -0.2042
     21 C         143.0964  141.6977  169.6630 C.ar    1  UNL1        0.0298
     22 C         142.1586  140.8738  168.8314 C.ar    1  UNL1        0.0068
     23 O         139.3730  141.9759  157.3535 O.3     1  UNL1       -0.4754
     24 C         140.2437  143.0086  156.7012 C.3     1  UNL1        0.2068
     25 C         139.9744  144.4670  156.9260 C.3     1  UNL1        0.0646
     26 C         140.9398  145.2939  157.7225 C.3     1  UNL1        0.0759
     27 C         143.2363  143.2281  158.7750 C.3     1  UNL1        0.0173
     28 C         142.2786  143.9956  159.6374 C.3     1  UNL1        0.0576
     29 C         142.2084  143.9484  161.1350 C.3     1  UNL1        0.0174
     30 C         141.1094  144.8688  161.5768 C.3     1  UNL1        0.0187
     31 C         140.5004  145.4848  160.3522 C.3     1  UNL1        0.0721
     32 N         141.2230  144.9452  159.1536 N.3     1  UNL1       -0.2738
@<TRIPOS>BOND
     1    28    27    1
     2    28    29    1
     3    29    30    1
     4    30    31    1
     5    31    32    1
     6    32    26    1
     7    26    25    1
     8    25    24    1
     9    24    23    1
    10    23     1    1
    11     1     2   ar
    12     2     3   ar
    13     3     4   ar
    14     4     7    1
    15     7     8    1
    16     8     9    1
    17     9    10    1
    18    10    11   am
    19    11    12    2
    20    11    16    1
    21    16    17   ar
    22    17    18   ar
    23    18    19   ar
    24    19    20    1
    25    19    21   ar
    26    21    22   ar
    27    10    13    1
    28    13    14    1
    29    14    15    2
    30     4     5   ar
    31     5     6   ar
    32    32    28    1
    33     6     1   ar
    34    14     7   am
    35    22    16   ar
@<TRIPOS>MOLECULE
*****
 32 35 0 0 0
SMALL
GASTEIGER

@<TRIPOS>ATOM
      1 C         139.3685  143.0261  161.1358 C.ar    1  UNL1        0.1386
      2 C         138.8727  142.7123  159.7553 C.ar    1  UNL1        0.0382
      3 C         139.5855  141.6939  158.9159 C.ar    1  UNL1        0.0180
      4 C         140.7941  140.9893  159.4570 C.ar    1  UNL1        0.0541
      5 C         141.2899  141.3030  160.8374 C.ar    1  UNL1        0.0180
      6 C         140.5771  142.3214  161.6768 C.ar    1  UNL1        0.0382
      7 N         141.5070  139.9708  158.6175 N.am    1  UNL1       -0.2555
      8 C         140.9610  138.5784  158.5029 C.3     1  UNL1        0.1197
      9 C         141.6739  137.5600  157.6634 C.3     1  UNL1        0.1160
     10 N         142.9327  137.9339  156.9386 N.am    1  UNL1       -0.2660
     11 C         143.6456  136.9156  156.0991 C.2     1  UNL1        0.2494
     12 O         144.9044  137.2895  155.3743 O.2     1  UNL1       -0.2699
     13 C         143.4787  139.3264  157.0532 C.3     1  UNL1        0.1799
     14 C         142.7659  140.3448  157.8926 C.2     1  UNL1        0.2497
     15 O         143.3119  141.7372  158.0073 O.2     1  UNL1       -0.2727
     16 C         143.0995  135.5232  155.9846 C.ar    1  UNL1        0.0537
     17 C         142.1063  135.1931  154.9101 C.ar    1  UNL1        0.0068
     18 C         141.5603  133.8007  154.7955 C.ar    1  UNL1        0.0298
     19 C         142.0075  132.7384  155.7554 C.ar    1  UNL1        0.1401
     20 F         141.4615  131.3461  155.6409 F       1  UNL1       -0.2042
     21 C         143.0008  133.0685  156.8299 C.ar    1  UNL1        0.0298
     22 C         143.5468  134.4608  156.9445 C.ar    1  UNL1        0.0068
     23 O         138.6556  144.0446  161.9752 O.3     1  UNL1       -0.4754
     24 C         137.7201  143.6001  163.0602 C.3     1  UNL1        0.2068
     25 C         137.3821  142.1463  163.2102 C.3     1  UNL1        0.0646
     26 C         137.9341  141.3632  164.3642 C.3     1  UNL1        0.0759
     27 C         138.4721  139.1870  166.7357 C.3     1  UNL1        0.0173
     28 C         138.5921  138.9331  165.2622 C.3     1  UNL1        0.0576
     29 C         138.9806  137.6343  164.6202 C.3     1  UNL1        0.0174
     30 C         138.9733  137.8319  163.1332 C.3     1  UNL1        0.0187
     31 C         138.5805  139.2528  162.8564 C.3     1  UNL1        0.0721
     32 N         138.3449  139.9334  164.1722 N.3     1  UNL1       -0.2738
@<TRIPOS>BOND
     1    28    27    1
     2    28    29    1
     3    29    30    1
     4    30    31    1
     5    31    32    1
     6    32    26    1
     7    26    25    1
     8    25    24    1
     9    24    23    1
    10    23     1    1
    11     1     2   ar
    12     2     3   ar
    13     3     4   ar
    14     4     7    1
    15     7     8    1
    16     8     9    1
    17     9    10    1
    18    10    11   am
    19    11    12    2
    20    11    16    1
    21    16    17   ar
    22    17    18   ar
    23    18    19   ar
    24    19    20    1
    25    19    21   ar
    26    21    22   ar
    27    10    13    1
    28    13    14    1
    29    14    15    2
    30     4     5   ar
    31     5     6   ar
    32    32    28    1
    33     6     1   ar
    34    14     7   am
    35    22    16   ar
@<TRIPOS>MOLECULE
*****
 32 35 0 0 0
SMALL
GASTEIGER

@<TRIPOS>ATOM
      1 C         142.0390  141.0161  158.5493 C.ar    1  UNL1        0.1386
      2 C         141.1925  139.9614  159.1981 C.ar    1  UNL1        0.0382
      3 C         141.2563  139.7569  160.6827 C.ar    1  UNL1        0.0180
      4 C         142.1665  140.6071  161.5185 C.ar    1  UNL1        0.0541
      5 C         143.0130  141.6619  160.8697 C.ar    1  UNL1        0.0180
      6 C         142.9492  141.8664  159.3851 C.ar    1  UNL1        0.0382
      7 N         142.2302  140.4026  163.0032 N.am    1  UNL1       -0.2555
      8 C         141.4198  141.2745  163.9158 C.3     1  UNL1        0.1197
      9 C         141.4835  141.0699  165.4005 C.3     1  UNL1        0.1160
     10 N         142.3577  139.9935  165.9724 N.am    1  UNL1       -0.2660
     11 C         142.4214  139.7889  167.4570 C.2     1  UNL1        0.2494
     12 O         143.2955  138.7124  168.0289 O.2     1  UNL1       -0.2699
     13 C         143.1681  139.1215  165.0597 C.3     1  UNL1        0.1799
     14 C         143.1043  139.3261  163.5751 C.2     1  UNL1        0.2497
     15 O         143.9147  138.4542  162.6623 O.2     1  UNL1       -0.2727
     16 C         141.6110  140.6608  168.3697 C.ar    1  UNL1        0.0537
     17 C         142.1289  142.0093  168.7740 C.ar    1  UNL1        0.0068
     18 C         141.3185  142.8812  169.6867 C.ar    1  UNL1        0.0298
     19 C         139.9902  142.4047  170.1951 C.ar    1  UNL1        0.1401
     20 F         139.1798  143.2766  171.1077 F       1  UNL1       -0.2042
     21 C         139.4723  141.0562  169.7908 C.ar    1  UNL1        0.0298
     22 C         140.2827  140.1843  168.8781 C.ar    1  UNL1        0.0068
     23 O         141.9753  141.2206  157.0646 O.3     1  UNL1       -0.4754
     24 C         141.5044  142.5313  156.5077 C.3     1  UNL1        0.2068
     25 C         140.1239  143.0272  156.8217 C.3     1  UNL1        0.0646
     26 C         139.9419  144.2941  157.6038 C.3     1  UNL1        0.0759
     27 C         138.4739  142.3650  159.7885 C.3     1  UNL1        0.0173
     28 C         139.5024  143.4147  160.0894 C.3     1  UNL1        0.0576
     29 C         140.0366  143.7618  161.4473 C.3     1  UNL1        0.0174
     30 C         141.0416  144.8632  161.2824 C.3     1  UNL1        0.0187
     31 C         141.1284  145.1966  159.8225 C.3     1  UNL1        0.0721
     32 N         140.1771  144.3014  159.0852 N.3     1  UNL1       -0.2738
@<TRIPOS>BOND
     1    28    27    1
     2    28    29    1
     3    29    30    1
     4    30    31    1
     5    31    32    1
     6    32    26    1
     7    26    25    1
     8    25    24    1
     9    24    23    1
    10    23     1    1
    11     1     2   ar
    12     2     3   ar
    13     3     4   ar
    14     4     7    1
    15     7     8    1
    16     8     9    1
    17     9    10    1
    18    10    11   am
    19    11    12    2
    20    11    16    1
    21    16    17   ar
    22    17    18   ar
    23    18    19   ar
    24    19    20    1
    25    19    21   ar
    26    21    22   ar
    27    10    13    1
    28    13    14    1
    29    14    15    2
    30     4     5   ar
    31     5     6   ar
    32    32    28    1
    33     6     1   ar
    34    14     7   am
    35    22    16   ar
@<TRIPOS>MOLECULE
*****
 32 35 0 0 0
SMALL
GASTEIGER

@<TRIPOS>ATOM
      1 C         144.1038  141.6533  161.0572 C.ar    1  UNL1        0.1386
      2 C         144.6388  142.1796  159.7584 C.ar    1  UNL1        0.0382
      3 C         143.7458  142.9615  158.8413 C.ar    1  UNL1        0.0180
      4 C         142.3178  143.2171  159.2229 C.ar    1  UNL1        0.0541
      5 C         141.7828  142.6907  160.5217 C.ar    1  UNL1        0.0180
      6 C         142.6758  141.9088  161.4388 C.ar    1  UNL1        0.0382
      7 N         141.4248  143.9990  158.3057 N.am    1  UNL1       -0.2555
      8 C         141.6804  145.4589  158.0749 C.3     1  UNL1        0.1197
      9 C         140.7874  146.2408  157.1577 C.3     1  UNL1        0.1160
     10 N         139.6388  145.5628  156.4714 N.am    1  UNL1       -0.2660
     11 C         138.7459  146.3447  155.5542 C.2     1  UNL1        0.2494
     12 O         137.5972  145.6667  154.8679 O.2     1  UNL1       -0.2699
     13 C         139.3832  144.1029  156.7023 C.3     1  UNL1        0.1799
     14 C         140.2762  143.3210  157.6194 C.2     1  UNL1        0.2497
     15 O         140.0206  141.8610  157.8504 O.2     1  UNL1       -0.2727
     16 C         139.0015  147.8046  155.3233 C.ar    1  UNL1        0.0537
     17 C         138.4008  148.8258  156.2432 C.ar    1  UNL1        0.0068
     18 C         138.6565  150.2858  156.0123 C.ar    1  UNL1        0.0298
     19 C         139.5128  150.7244  154.8616 C.ar    1  UNL1        0.1401
     20 F         139.7684  152.1843  154.6307 F       1  UNL1       -0.2042
     21 C         140.1135  149.7031  153.9417 C.ar    1  UNL1        0.0298
     22 C         139.8578  148.2433  154.1725 C.ar    1  UNL1        0.0068
     23 O         144.9968  140.8713  161.9744 O.3     1  UNL1       -0.4754
     24 C         144.7949  140.9434  163.4590 C.3     1  UNL1        0.2068
     25 C         145.1100  142.2101  164.1981 C.3     1  UNL1        0.0646
     26 C         144.1940  142.6928  165.2834 C.3     1  UNL1        0.0759
     27 C         143.6691  145.2077  163.2713 C.3     1  UNL1        0.0173
     28 C         142.6166  144.4330  164.0074 C.3     1  UNL1        0.0576
     29 C         141.1380  144.6783  163.9479 C.3     1  UNL1        0.0174
     30 C         140.4654  143.6739  164.8361 C.3     1  UNL1        0.0187
     31 C         141.5283  142.8079  165.4445 C.3     1  UNL1        0.0721
     32 N         142.8578  143.2770  164.9323 N.3     1  UNL1       -0.2738
@<TRIPOS>BOND
     1    28    27    1
     2    28    29    1
     3    29    30    1
     4    30    31    1
     5    31    32    1
     6    32    26    1
     7    26    25    1
     8    25    24    1
     9    24    23    1
    10    23     1    1
    11     1     2   ar
    12     2     3   ar
    13     3     4   ar
    14     4     7    1
    15     7     8    1
    16     8     9    1
    17     9    10    1
    18    10    11   am
    19    11    12    2
    20    11    16    1
    21    16    17   ar
    22    17    18   ar
    23    18    19   ar
    24    19    20    1
    25    19    21   ar
    26    21    22   ar
    27    10    13    1
    28    13    14    1
    29    14    15    2
    30     4     5   ar
    31     5     6   ar
    32    32    28    1
    33     6     1   ar
    34    14     7   am
    35    22    16   ar
@<TRIPOS>MOLECULE
*****
 32 35 0 0 0
SMALL
GASTEIGER

@<TRIPOS>ATOM
      1 C         140.4996  139.5141  158.6264 C.ar    1  UNL1        0.1386
      2 C         139.5814  138.8112  159.5817 C.ar    1  UNL1        0.0382
      3 C         139.8680  138.8371  161.0538 C.ar    1  UNL1        0.0180
      4 C         141.0728  139.5659  161.5706 C.ar    1  UNL1        0.0541
      5 C         141.9911  140.2688  160.6153 C.ar    1  UNL1        0.0180
      6 C         141.7045  140.2429  159.1432 C.ar    1  UNL1        0.0382
      7 N         141.3594  139.5918  163.0428 N.am    1  UNL1       -0.2555
      8 C         140.5787  140.5030  163.9430 C.3     1  UNL1        0.1197
      9 C         140.8653  140.5289  165.4152 C.3     1  UNL1        0.1160
     10 N         141.9326  139.6435  165.9871 N.am    1  UNL1       -0.2660
     11 C         142.2192  139.6694  167.4592 C.2     1  UNL1        0.2494
     12 O         143.2864  138.7841  168.0312 O.2     1  UNL1       -0.2699
     13 C         142.7132  138.7323  165.0869 C.3     1  UNL1        0.1799
     14 C         142.4267  138.7065  163.6148 C.2     1  UNL1        0.2497
     15 O         143.2073  137.7953  162.7146 O.2     1  UNL1       -0.2727
     16 C         141.4385  140.5806  168.3594 C.ar    1  UNL1        0.0537
     17 C         140.1843  140.0889  169.0192 C.ar    1  UNL1        0.0068
     18 C         139.4037  141.0001  169.9194 C.ar    1  UNL1        0.0298
     19 C         139.8771  142.4030  170.1597 C.ar    1  UNL1        0.1401
     20 F         139.0965  143.3142  171.0598 F       1  UNL1       -0.2042
     21 C         141.1313  142.8947  169.4998 C.ar    1  UNL1        0.0298
     22 C         141.9119  141.9835  168.5997 C.ar    1  UNL1        0.0068
     23 O         140.2131  139.4882  157.1542 O.3     1  UNL1       -0.4754
     24 C         140.6463  138.3148  156.3264 C.3     1  UNL1        0.2068
     25 C         141.4560  137.2160  156.9485 C.3     1  UNL1        0.0646
     26 C         142.4050  136.4151  156.1072 C.3     1  UNL1        0.0759
     27 C         143.8234  133.9968  157.7774 C.3     1  UNL1        0.0173
     28 C         142.8232  133.8360  156.6712 C.3     1  UNL1        0.0576
     29 C         142.2994  132.5353  156.1384 C.3     1  UNL1        0.0174
     30 C         141.3236  132.8430  155.0415 C.3     1  UNL1        0.0187
     31 C         141.2444  134.3338  154.8963 C.3     1  UNL1        0.0721
     32 N         142.1712  134.9475  155.9035 N.3     1  UNL1       -0.2738
@<TRIPOS>BOND
     1    28    27    1
     2    28    29    1
     3    29    30    1
     4    30    31    1
     5    31    32    1
     6    32    26    1
     7    26    25    1
     8    25    24    1
     9    24    23    1
    10    23     1    1
    11     1     2   ar
    12     2     3   ar
    13     3     4   ar
    14     4     7    1
    15     7     8    1
    16     8     9    1
    17     9    10    1
    18    10    11   am
    19    11    12    2
    20    11    16    1
    21    16    17   ar
    22    17    18   ar
    23    18    19   ar
    24    19    20    1
    25    19    21   ar
    26    21    22   ar
    27    10    13    1
    28    13    14    1
    29    14    15    2
    30     4     5   ar
    31     5     6   ar
    32    32    28    1
    33     6     1   ar
    34    14     7   am
    35    22    16   ar
@<TRIPOS>MOLECULE
*****
 32 35 0 0 0
SMALL
GASTEIGER

@<TRIPOS>ATOM
      1 C         138.2246  141.6417  161.8093 C.ar    1  UNL1        0.1386
      2 C         138.3681  142.1745  160.4145 C.ar    1  UNL1        0.0382
      3 C         139.2643  141.4779  159.4341 C.ar    1  UNL1        0.0180
      4 C         140.0172  140.2484  159.8484 C.ar    1  UNL1        0.0541
      5 C         139.8737  139.7156  161.2431 C.ar    1  UNL1        0.0180
      6 C         138.9775  140.4122  162.2236 C.ar    1  UNL1        0.0382
      7 N         140.9135  139.5518  158.8678 N.am    1  UNL1       -0.2555
      8 C         140.4078  138.3665  158.1002 C.3     1  UNL1        0.1197
      9 C         141.3041  137.6699  157.1197 C.3     1  UNL1        0.1160
     10 N         142.7061  138.1587  156.9067 N.am    1  UNL1       -0.2660
     11 C         143.6024  137.4621  155.9263 C.2     1  UNL1        0.2494
     12 O         145.0045  137.9509  155.7133 O.2     1  UNL1       -0.2699
     13 C         143.2119  139.3440  157.6744 C.3     1  UNL1        0.1799
     14 C         142.3156  140.0406  158.6549 C.2     1  UNL1        0.2497
     15 O         142.8213  141.2260  159.4225 O.2     1  UNL1       -0.2727
     16 C         143.0967  136.2768  155.1587 C.ar    1  UNL1        0.0537
     17 C         143.3214  134.8905  155.6857 C.ar    1  UNL1        0.0068
     18 C         142.8156  133.7052  154.9180 C.ar    1  UNL1        0.0298
     19 C         142.0851  133.9061  153.6235 C.ar    1  UNL1        0.1401
     20 F         141.5794  132.7208  152.8559 F       1  UNL1       -0.2042
     21 C         141.8604  135.2924  153.0965 C.ar    1  UNL1        0.0298
     22 C         142.3661  136.4777  153.8641 C.ar    1  UNL1        0.0068
     23 O         137.3283  142.3383  162.7899 O.3     1  UNL1       -0.4754
     24 C         137.6437  143.7364  163.2322 C.3     1  UNL1        0.2068
     25 C         138.7069  143.9751  164.2631 C.3     1  UNL1        0.0646
     26 C         139.9366  144.7559  163.9054 C.3     1  UNL1        0.0759
     27 C         141.9866  142.6554  162.4791 C.3     1  UNL1        0.0173
     28 C         141.3456  143.8435  161.8253 C.3     1  UNL1        0.0576
     29 C         141.5343  144.2747  160.4011 C.3     1  UNL1        0.0174
     30 C         140.7087  145.5067  160.1764 C.3     1  UNL1        0.0187
     31 C         140.0097  145.8369  161.4619 C.3     1  UNL1        0.0721
     32 N         140.4033  144.8090  162.4809 N.3     1  UNL1       -0.2738
@<TRIPOS>BOND
     1    28    27    1
     2    28    29    1
     3    29    30    1
     4    30    31    1
     5    31    32    1
     6    32    26    1
     7    26    25    1
     8    25    24    1
     9    24    23    1
    10    23     1    1
    11     1     2   ar
    12     2     3   ar
    13     3     4   ar
    14     4     7    1
    15     7     8    1
    16     8     9    1
    17     9    10    1
    18    10    11   am
    19    11    12    2
    20    11    16    1
    21    16    17   ar
    22    17    18   ar
    23    18    19   ar
    24    19    20    1
    25    19    21   ar
    26    21    22   ar
    27    10    13    1
    28    13    14    1
    29    14    15    2
    30     4     5   ar
    31     5     6   ar
    32    32    28    1
    33     6     1   ar
    34    14     7   am
    35    22    16   ar
@<TRIPOS>MOLECULE
*****
 32 35 0 0 0
SMALL
GASTEIGER

@<TRIPOS>ATOM
      1 C         141.8628  141.4184  162.5717 C.ar    1  UNL1        0.1386
      2 C         142.9455  142.1975  161.8857 C.ar    1  UNL1        0.0382
      3 C         142.6378  142.9696  160.6371 C.ar    1  UNL1        0.0180
      4 C         141.2473  142.9626  160.0745 C.ar    1  UNL1        0.0541
      5 C         140.1646  142.1836  160.7605 C.ar    1  UNL1        0.0180
      6 C         140.4723  141.4114  162.0091 C.ar    1  UNL1        0.0382
      7 N         140.9396  143.7348  158.8258 N.am    1  UNL1       -0.2555
      8 C         140.5518  145.1811  158.9148 C.3     1  UNL1        0.1197
      9 C         140.2440  145.9533  157.6661 C.3     1  UNL1        0.1160
     10 N         140.3241  145.2791  156.3285 N.am    1  UNL1       -0.2660
     11 C         140.0164  146.0512  155.0799 C.2     1  UNL1        0.2494
     12 O         140.0965  145.3771  153.7423 O.2     1  UNL1       -0.2699
     13 C         140.7119  143.8328  156.2396 C.3     1  UNL1        0.1799
     14 C         141.0196  143.0607  157.4882 C.2     1  UNL1        0.2497
     15 O         141.4074  141.6144  157.3993 O.2     1  UNL1       -0.2727
     16 C         139.6286  147.4975  155.1688 C.ar    1  UNL1        0.0537
     17 C         138.7555  147.9721  156.2923 C.ar    1  UNL1        0.0068
     18 C         138.3677  149.4185  156.3813 C.ar    1  UNL1        0.0298
     19 C         138.8531  150.3901  155.3467 C.ar    1  UNL1        0.1401
     20 F         138.4653  151.8363  155.4357 F       1  UNL1       -0.2042
     21 C         139.7263  149.9154  154.2232 C.ar    1  UNL1        0.0298
     22 C         140.1140  148.4692  154.1342 C.ar    1  UNL1        0.0068
     23 O         142.1705  140.6462  163.8203 O.3     1  UNL1       -0.4754
     24 C         142.1238  141.3290  165.1551 C.3     1  UNL1        0.2068
     25 C         140.8069  141.7534  165.7347 C.3     1  UNL1        0.0646
     26 C         140.4636  143.2105  165.8289 C.3     1  UNL1        0.0759
     27 C         142.2214  145.1464  163.8765 C.3     1  UNL1        0.0173
     28 C         140.7631  144.8305  163.7240 C.3     1  UNL1        0.0576
     29 C         139.8566  145.3491  162.6472 C.3     1  UNL1        0.0174
     30 C         138.4883  144.7797  162.8791 C.3     1  UNL1        0.0187
     31 C         138.5492  143.9093  164.0992 C.3     1  UNL1        0.0721
     32 N         139.9551  143.9407  164.6214 N.3     1  UNL1       -0.2738
@<TRIPOS>BOND
     1    28    27    1
     2    28    29    1
     3    29    30    1
     4    30    31    1
     5    31    32    1
     6    32    26    1
     7    26    25    1
     8    25    24    1
     9    24    23    1
    10    23     1    1
    11     1     2   ar
    12     2     3   ar
    13     3     4   ar
    14     4     7    1
    15     7     8    1
    16     8     9    1
    17     9    10    1
    18    10    11   am
    19    11    12    2
    20    11    16    1
    21    16    17   ar
    22    17    18   ar
    23    18    19   ar
    24    19    20    1
    25    19    21   ar
    26    21    22   ar
    27    10    13    1
    28    13    14    1
    29    14    15    2
    30     4     5   ar
    31     5     6   ar
    32    32    28    1
    33     6     1   ar
    34    14     7   am
    35    22    16   ar
