@<TRIPOS>MOLECULE
*****
 33 36 0 0 0
SMALL
GASTEIGER

@<TRIPOS>ATOM
      1 O         137.1416  141.5765  162.5043 O.3     1  UNL1       -0.4517
      2 C         137.9608  142.4281  163.4283 C.ar    1  UNL1        0.2312
      3 N         138.1082  143.8968  163.1617 N.ar    1  UNL1       -0.1892
      4 C         138.9273  144.7483  164.0858 C.ar    1  UNL1        0.2029
      5 N         139.5992  144.1310  165.2764 N.ar    1  UNL1       -0.2046
      6 C         139.4519  142.6623  165.5430 C.ar    1  UNL1        0.1715
      7 C         138.6327  141.8108  164.6190 C.ar    1  UNL1        0.1098
      8 C         138.6675  140.4022  165.1336 C.ar    1  UNL1        0.1283
      9 N         139.5083  140.3832  166.3756 N.ar    1  UNL1       -0.1619
     10 N         139.9930  141.7800  166.6287 N.ar    1  UNL1       -0.2111
     11 C         140.8657  142.2177  167.7675 C.ar    1  UNL1        0.0949
     12 C         140.2820  143.0142  168.8966 C.ar    1  UNL1        0.0201
     13 C         141.1547  143.4519  170.0354 C.ar    1  UNL1        0.0016
     14 C         142.6111  143.0931  170.0451 C.ar    1  UNL1        0.0010
     15 C         143.1947  142.2965  168.9161 C.ar    1  UNL1        0.0129
     16 C         142.3221  141.8588  167.7773 C.ar    1  UNL1        0.0753
     17 CL        142.9058  141.0623  166.6482 Cl      1  UNL1       -0.0807
     18 C         137.8190  140.7179  161.4776 C.3     1  UNL1        0.2722
     19 C         139.0345  141.2250  160.7597 C.2     1  UNL1        0.2701
     20 O         138.9744  142.5204  160.0059 O.2     1  UNL1       -0.2707
     21 N         140.3101  140.4367  160.7956 N.am    1  UNL1       -0.2651
     22 H         140.3496  139.5864  161.2904 H       1  UNL1        0.1564
     23 C         141.5257  140.9437  160.0778 C.ar    1  UNL1        0.1536
     24 C         142.5628  141.7308  160.8227 C.ar    1  UNL1        0.1328
     25 N         143.7783  142.2378  160.1048 N.ar    1  UNL1       -0.2436
     26 C         143.9568  141.9578  158.6420 C.ar    1  UNL1        0.0786
     27 C         145.1723  142.4648  157.9241 C.3     1  UNL1        0.0538
     28 C         142.9197  141.1707  157.8971 C.ar    1  UNL1        0.1150
     29 N         141.7041  140.6636  158.6150 N.ar    1  UNL1       -0.2262
     30 C         137.2808  139.3523  161.1688 C.3     1  UNL1        0.1951
     31 O         138.1477  138.1434  161.3611 O.3     1  UNL1       -0.3494
     32 C         140.0934  137.5776  162.9873 C.3     1  UNL1        0.0346
     33 C         138.6283  137.7758  162.7337 C.3     1  UNL1        0.1424
@<TRIPOS>BOND
     1    32    33    1
     2    33    31    1
     3    31    30    1
     4    18    30    1
     5    18     1    1
     6     1     2    1
     7     2     3   ar
     8     3     4   ar
     9     4     5   ar
    10     5     6   ar
    11     6     7   ar
    12     7     8   ar
    13     8     9   ar
    14     9    10   ar
    15    10    11    1
    16    11    12   ar
    17    12    13   ar
    18    13    14   ar
    19    14    15   ar
    20    15    16   ar
    21    16    17    1
    22    18    19    1
    23    19    20    2
    24    19    21   am
    25    21    23    1
    26    23    24   ar
    27    24    25   ar
    28    25    26   ar
    29    26    27    1
    30    26    28   ar
    31    28    29   ar
    32     7     2   ar
    33    16    11   ar
    34    29    23   ar
    35    10     6   ar
    36    21    22    1
@<TRIPOS>MOLECULE
*****
 33 36 0 0 0
SMALL
GASTEIGER

@<TRIPOS>ATOM
      1 O         137.0513  141.5085  162.5956 O.3     1  UNL1       -0.4517
      2 C         137.8760  142.3647  163.5104 C.ar    1  UNL1        0.2312
      3 N         137.9913  143.8386  163.2569 N.ar    1  UNL1       -0.1892
      4 C         138.8161  144.6946  164.1717 C.ar    1  UNL1        0.2029
      5 N         139.5255  144.0768  165.3401 N.ar    1  UNL1       -0.2046
      6 C         139.4102  142.6029  165.5936 C.ar    1  UNL1        0.1715
      7 C         138.5855  141.7469  164.6788 C.ar    1  UNL1        0.1098
      8 C         138.6568  140.3337  165.1768 C.ar    1  UNL1        0.1283
      9 N         139.5257  140.3164  166.3994 N.ar    1  UNL1       -0.1619
     10 N         139.9913  141.7189  166.6570 N.ar    1  UNL1       -0.2111
     11 C         140.8816  142.1599  167.7807 C.ar    1  UNL1        0.0949
     12 C         140.3120  142.9439  168.9256 C.ar    1  UNL1        0.0201
     13 C         141.2024  143.3849  170.0493 C.ar    1  UNL1        0.0016
     14 C         142.6625  143.0419  170.0281 C.ar    1  UNL1        0.0010
     15 C         143.2321  142.2579  168.8832 C.ar    1  UNL1        0.0129
     16 C         142.3418  141.8169  167.7595 C.ar    1  UNL1        0.0753
     17 CL        142.9115  141.0329  166.6147 Cl      1  UNL1       -0.0807
     18 C         137.7167  140.7058  161.5172 C.3     1  UNL1        0.2722
     19 C         138.4006  141.4017  160.3779 C.2     1  UNL1        0.2701
     20 O         138.0791  141.0190  158.9637 O.2     1  UNL1       -0.2707
     21 N         139.4061  142.4803  160.6530 N.am    1  UNL1       -0.2651
     22 H         139.6171  142.7315  161.5812 H       1  UNL1        0.1564
     23 C         140.0900  143.1763  159.5138 C.ar    1  UNL1        0.1536
     24 C         141.1288  142.4535  158.7083 C.ar    1  UNL1        0.1328
     25 N         141.8127  143.1495  157.5691 N.ar    1  UNL1       -0.2436
     26 C         141.4579  144.5682  157.2353 C.ar    1  UNL1        0.0786
     27 C         142.1418  145.2642  156.0961 C.3     1  UNL1        0.0538
     28 C         140.4192  145.2909  158.0407 C.ar    1  UNL1        0.1150
     29 N         139.7352  144.5949  159.1800 N.ar    1  UNL1       -0.2262
     30 C         137.6981  139.2072  161.5782 C.3     1  UNL1        0.1951
     31 O         138.7987  138.4167  160.9348 O.3     1  UNL1       -0.3494
     32 C         140.0095  137.5171  163.0502 C.3     1  UNL1        0.0346
     33 C         140.0665  138.1448  161.6891 C.3     1  UNL1        0.1424
@<TRIPOS>BOND
     1    32    33    1
     2    33    31    1
     3    31    30    1
     4    18    30    1
     5    18     1    1
     6     1     2    1
     7     2     3   ar
     8     3     4   ar
     9     4     5   ar
    10     5     6   ar
    11     6     7   ar
    12     7     8   ar
    13     8     9   ar
    14     9    10   ar
    15    10    11    1
    16    11    12   ar
    17    12    13   ar
    18    13    14   ar
    19    14    15   ar
    20    15    16   ar
    21    16    17    1
    22    18    19    1
    23    19    20    2
    24    19    21   am
    25    21    23    1
    26    23    24   ar
    27    24    25   ar
    28    25    26   ar
    29    26    27    1
    30    26    28   ar
    31    28    29   ar
    32     7     2   ar
    33    16    11   ar
    34    29    23   ar
    35    10     6   ar
    36    21    22    1
@<TRIPOS>MOLECULE
*****
 33 36 0 0 0
SMALL
GASTEIGER

@<TRIPOS>ATOM
      1 O         137.4901  140.5690  163.1667 O.3     1  UNL1       -0.4517
      2 C         138.0933  140.3727  164.5261 C.ar    1  UNL1        0.2312
      3 N         137.7755  139.1381  165.3164 N.ar    1  UNL1       -0.1892
      4 C         138.3787  138.9418  166.6757 C.ar    1  UNL1        0.2029
      5 N         139.2997  139.9802  167.2446 N.ar    1  UNL1       -0.2046
      6 C         139.6175  141.2147  166.4542 C.ar    1  UNL1        0.1715
      7 C         139.0143  141.4110  165.0949 C.ar    1  UNL1        0.1098
      8 C         139.5082  142.7197  164.5532 C.ar    1  UNL1        0.1283
      9 N         140.4165  143.3323  165.5777 N.ar    1  UNL1       -0.1619
     10 N         140.4841  142.4021  166.7525 N.ar    1  UNL1       -0.2111
     11 C         141.2788  142.6210  168.0058 C.ar    1  UNL1        0.0949
     12 C         140.6520  143.3118  169.1803 C.ar    1  UNL1        0.0201
     13 C         141.4467  143.5307  170.4336 C.ar    1  UNL1        0.0016
     14 C         142.8683  143.0586  170.5122 C.ar    1  UNL1        0.0010
     15 C         143.4951  142.3677  169.3376 C.ar    1  UNL1        0.0129
     16 C         142.7004  142.1489  168.0844 C.ar    1  UNL1        0.0753
     17 CL        143.3274  141.4580  166.9099 Cl      1  UNL1       -0.0807
     18 C         138.1634  139.9917  161.9570 C.3     1  UNL1        0.2722
     19 C         138.9484  140.8815  161.0394 C.2     1  UNL1        0.2701
     20 O         139.7531  140.2847  159.9230 O.2     1  UNL1       -0.2707
     21 N         138.9288  142.3682  161.2382 N.am    1  UNL1       -0.2651
     22 H         138.4007  142.7599  161.9709 H       1  UNL1        0.1564
     23 C         139.7138  143.2580  160.3206 C.ar    1  UNL1        0.1536
     24 C         141.0060  143.8615  160.7853 C.ar    1  UNL1        0.1328
     25 N         141.7910  144.7513  159.8678 N.ar    1  UNL1       -0.2436
     26 C         141.2839  145.0376  158.4854 C.ar    1  UNL1        0.0786
     27 C         142.0689  145.9274  157.5678 C.3     1  UNL1        0.0538
     28 C         139.9917  144.4341  158.0207 C.ar    1  UNL1        0.1150
     29 N         139.2067  143.5442  158.9383 N.ar    1  UNL1       -0.2262
     30 C         138.0516  138.5247  161.6649 C.3     1  UNL1        0.1951
     31 O         138.7476  137.5295  162.5452 O.3     1  UNL1       -0.3494
     32 C         141.2401  137.8074  161.8666 C.3     1  UNL1        0.0346
     33 C         140.1824  137.7413  162.9282 C.3     1  UNL1        0.1424
@<TRIPOS>BOND
     1    32    33    1
     2    33    31    1
     3    31    30    1
     4    18    30    1
     5    18     1    1
     6     1     2    1
     7     2     3   ar
     8     3     4   ar
     9     4     5   ar
    10     5     6   ar
    11     6     7   ar
    12     7     8   ar
    13     8     9   ar
    14     9    10   ar
    15    10    11    1
    16    11    12   ar
    17    12    13   ar
    18    13    14   ar
    19    14    15   ar
    20    15    16   ar
    21    16    17    1
    22    18    19    1
    23    19    20    2
    24    19    21   am
    25    21    23    1
    26    23    24   ar
    27    24    25   ar
    28    25    26   ar
    29    26    27    1
    30    26    28   ar
    31    28    29   ar
    32     7     2   ar
    33    16    11   ar
    34    29    23   ar
    35    10     6   ar
    36    21    22    1
@<TRIPOS>MOLECULE
*****
 33 36 0 0 0
SMALL
GASTEIGER

@<TRIPOS>ATOM
      1 O         144.8273  140.6783  162.5217 O.3     1  UNL1       -0.4517
      2 C         144.1155  141.3044  163.6842 C.ar    1  UNL1        0.2312
      3 N         143.8270  142.7763  163.6826 N.ar    1  UNL1       -0.1892
      4 C         143.1152  143.4023  164.8451 C.ar    1  UNL1        0.2029
      5 N         142.6919  142.5564  166.0092 N.ar    1  UNL1       -0.2046
      6 C         142.9804  141.0844  166.0108 C.ar    1  UNL1        0.1715
      7 C         143.6922  140.4584  164.8483 C.ar    1  UNL1        0.1098
      8 C         143.8382  138.9921  165.1292 C.ar    1  UNL1        0.1283
      9 N         143.2166  138.7120  166.4652 N.ar    1  UNL1       -0.1619
     10 N         142.6864  140.0051  167.0101 N.ar    1  UNL1       -0.2111
     11 C         141.9854  140.1869  168.3237 C.ar    1  UNL1        0.0949
     12 C         142.7799  140.4600  169.5664 C.ar    1  UNL1        0.0201
     13 C         142.0788  140.6419  170.8799 C.ar    1  UNL1        0.0016
     14 C         140.5833  140.5506  170.9509 C.ar    1  UNL1        0.0010
     15 C         139.7889  140.2776  169.7082 C.ar    1  UNL1        0.0129
     16 C         140.4899  140.0957  168.3946 C.ar    1  UNL1        0.0753
     17 CL        139.6953  139.8227  167.1520 Cl      1  UNL1       -0.0807
     18 C         144.0423  140.1505  161.3575 C.3     1  UNL1        0.2722
     19 C         143.2211  141.0862  160.5207 C.2     1  UNL1        0.2701
     20 O         142.2268  140.5389  159.5401 O.2     1  UNL1       -0.2707
     21 N         143.3943  142.5692  160.6646 N.am    1  UNL1       -0.2651
     22 H         144.0470  142.9284  161.3082 H       1  UNL1        0.1564
     23 C         142.5732  143.5049  159.8278 C.ar    1  UNL1        0.1536
     24 C         141.2351  143.9721  160.3189 C.ar    1  UNL1        0.1328
     25 N         140.4139  144.9078  159.4822 N.ar    1  UNL1       -0.2436
     26 C         140.9309  145.3762  158.1542 C.ar    1  UNL1        0.0786
     27 C         140.1097  146.3119  157.3175 C.3     1  UNL1        0.0538
     28 C         142.2690  144.9090  157.6631 C.ar    1  UNL1        0.1150
     29 N         143.0901  143.9733  158.4999 N.ar    1  UNL1       -0.2262
     30 C         144.0786  138.6872  161.0302 C.3     1  UNL1        0.1951
     31 O         143.2889  137.7144  161.8549 O.3     1  UNL1       -0.3494
     32 C         141.1574  137.2771  163.2746 C.3     1  UNL1        0.0346
     33 C         141.8371  137.9708  162.1315 C.3     1  UNL1        0.1424
@<TRIPOS>BOND
     1    32    33    1
     2    33    31    1
     3    31    30    1
     4    18    30    1
     5    18     1    1
     6     1     2    1
     7     2     3   ar
     8     3     4   ar
     9     4     5   ar
    10     5     6   ar
    11     6     7   ar
    12     7     8   ar
    13     8     9   ar
    14     9    10   ar
    15    10    11    1
    16    11    12   ar
    17    12    13   ar
    18    13    14   ar
    19    14    15   ar
    20    15    16   ar
    21    16    17    1
    22    18    19    1
    23    19    20    2
    24    19    21   am
    25    21    23    1
    26    23    24   ar
    27    24    25   ar
    28    25    26   ar
    29    26    27    1
    30    26    28   ar
    31    28    29   ar
    32     7     2   ar
    33    16    11   ar
    34    29    23   ar
    35    10     6   ar
    36    21    22    1
@<TRIPOS>MOLECULE
*****
 33 36 0 0 0
SMALL
GASTEIGER

@<TRIPOS>ATOM
      1 O         140.2263  137.2424  162.7977 O.3     1  UNL1       -0.4517
      2 C         140.9742  138.0260  163.8353 C.ar    1  UNL1        0.2312
      3 N         142.4526  138.2370  163.6946 N.ar    1  UNL1       -0.1892
      4 C         143.2005  139.0207  164.7322 C.ar    1  UNL1        0.2029
      5 N         142.4699  139.5934  165.9105 N.ar    1  UNL1       -0.2046
      6 C         140.9915  139.3824  166.0512 C.ar    1  UNL1        0.1715
      7 C         140.2437  138.5987  165.0136 C.ar    1  UNL1        0.1098
      8 C         138.7996  138.5552  165.4172 C.ar    1  UNL1        0.1283
      9 N         138.6550  139.3119  166.7042 N.ar    1  UNL1       -0.1619
     10 N         140.0097  139.8232  167.0960 N.ar    1  UNL1       -0.2111
     11 C         140.3269  140.6330  168.3181 C.ar    1  UNL1        0.0949
     12 C         140.4775  139.9561  169.6482 C.ar    1  UNL1        0.0201
     13 C         140.7947  140.7660  170.8703 C.ar    1  UNL1        0.0016
     14 C         140.9612  142.2528  170.7623 C.ar    1  UNL1        0.0010
     15 C         140.8106  142.9297  169.4323 C.ar    1  UNL1        0.0129
     16 C         140.4934  142.1198  168.2102 C.ar    1  UNL1        0.0753
     17 CL        140.3428  142.7968  166.8801 Cl      1  UNL1       -0.0807
     18 C         139.4918  137.9576  161.7028 C.3     1  UNL1        0.2722
     19 C         140.2105  138.3393  160.4426 C.2     1  UNL1        0.2701
     20 O         139.4406  138.5364  159.1705 O.2     1  UNL1       -0.2707
     21 N         141.6990  138.5240  160.4547 N.am    1  UNL1       -0.2651
     22 H         142.2043  138.3947  161.2897 H       1  UNL1        0.1564
     23 C         142.4176  138.9058  159.1947 C.ar    1  UNL1        0.1536
     24 C         142.7177  137.8645  158.1575 C.ar    1  UNL1        0.1328
     25 N         143.4363  138.2463  156.8975 N.ar    1  UNL1       -0.2436
     26 C         143.8550  139.6694  156.6746 C.ar    1  UNL1        0.0786
     27 C         144.5736  140.0511  155.4145 C.3     1  UNL1        0.0538
     28 C         143.5550  140.7106  157.7117 C.ar    1  UNL1        0.1150
     29 N         142.8363  140.3288  158.9718 N.ar    1  UNL1       -0.2262
     30 C         138.0387  138.2910  161.8679 C.3     1  UNL1        0.1951
     31 O         137.5615  139.6956  161.6455 O.3     1  UNL1       -0.3494
     32 C         139.0263  141.4223  162.9195 C.3     1  UNL1        0.0346
     33 C         137.7143  140.7202  162.7304 C.3     1  UNL1        0.1424
@<TRIPOS>BOND
     1    32    33    1
     2    33    31    1
     3    31    30    1
     4    18    30    1
     5    18     1    1
     6     1     2    1
     7     2     3   ar
     8     3     4   ar
     9     4     5   ar
    10     5     6   ar
    11     6     7   ar
    12     7     8   ar
    13     8     9   ar
    14     9    10   ar
    15    10    11    1
    16    11    12   ar
    17    12    13   ar
    18    13    14   ar
    19    14    15   ar
    20    15    16   ar
    21    16    17    1
    22    18    19    1
    23    19    20    2
    24    19    21   am
    25    21    23    1
    26    23    24   ar
    27    24    25   ar
    28    25    26   ar
    29    26    27    1
    30    26    28   ar
    31    28    29   ar
    32     7     2   ar
    33    16    11   ar
    34    29    23   ar
    35    10     6   ar
    36    21    22    1
@<TRIPOS>MOLECULE
*****
 33 36 0 0 0
SMALL
GASTEIGER

@<TRIPOS>ATOM
      1 O         141.6805  138.2199  157.7340 O.3     1  UNL1       -0.4517
      2 C         141.8782  138.2864  159.2195 C.ar    1  UNL1        0.2312
      3 N         143.2440  138.0805  159.8043 N.ar    1  UNL1       -0.1892
      4 C         143.4416  138.1469  161.2897 C.ar    1  UNL1        0.2029
      5 N         142.2733  138.4192  162.1903 N.ar    1  UNL1       -0.2046
      6 C         140.9075  138.6251  161.6055 C.ar    1  UNL1        0.1715
      7 C         140.7099  138.5586  160.1201 C.ar    1  UNL1        0.1098
      8 C         139.2573  138.8007  159.8343 C.ar    1  UNL1        0.1283
      9 N         138.5572  139.0167  161.1432 N.ar    1  UNL1       -0.1619
     10 N         139.5771  138.9081  162.2378 N.ar    1  UNL1       -0.2111
     11 C         139.3129  139.0566  163.7069 C.ar    1  UNL1        0.0949
     12 C         138.7901  137.8933  164.4963 C.ar    1  UNL1        0.0201
     13 C         138.5259  138.0417  165.9654 C.ar    1  UNL1        0.0016
     14 C         138.7846  139.3536  166.6451 C.ar    1  UNL1        0.0010
     15 C         139.3074  140.5170  165.8557 C.ar    1  UNL1        0.0129
     16 C         139.5716  140.3685  164.3866 C.ar    1  UNL1        0.0753
     17 CL        140.0944  141.5319  163.5973 Cl      1  UNL1       -0.0807
     18 C         142.8683  138.1245  156.8229 C.3     1  UNL1        0.2722
     19 C         143.4213  136.7810  156.4498 C.2     1  UNL1        0.2701
     20 O         144.6993  136.6861  155.6703 O.2     1  UNL1       -0.2707
     21 N         142.6963  135.5323  156.8562 N.am    1  UNL1       -0.2651
     22 H         141.8574  135.5946  157.3678 H       1  UNL1        0.1564
     23 C         143.2492  134.1888  156.4831 C.ar    1  UNL1        0.1536
     24 C         142.8464  133.5449  155.1896 C.ar    1  UNL1        0.1328
     25 N         143.3993  132.2014  154.8165 N.ar    1  UNL1       -0.2436
     26 C         144.3551  131.5018  155.7369 C.ar    1  UNL1        0.0786
     27 C         144.9081  130.1583  155.3638 C.3     1  UNL1        0.0538
     28 C         144.7580  132.1458  157.0304 C.ar    1  UNL1        0.1150
     29 N         144.2050  133.4893  157.4035 N.ar    1  UNL1       -0.2262
     30 C         143.5031  139.3726  156.2850 C.3     1  UNL1        0.1951
     31 O         144.6759  139.9829  156.9935 O.3     1  UNL1       -0.3494
     32 C         143.0894  141.6154  158.2457 C.3     1  UNL1        0.0346
     33 C         144.4765  141.1697  157.8890 C.3     1  UNL1        0.1424
@<TRIPOS>BOND
     1    32    33    1
     2    33    31    1
     3    31    30    1
     4    18    30    1
     5    18     1    1
     6     1     2    1
     7     2     3   ar
     8     3     4   ar
     9     4     5   ar
    10     5     6   ar
    11     6     7   ar
    12     7     8   ar
    13     8     9   ar
    14     9    10   ar
    15    10    11    1
    16    11    12   ar
    17    12    13   ar
    18    13    14   ar
    19    14    15   ar
    20    15    16   ar
    21    16    17    1
    22    18    19    1
    23    19    20    2
    24    19    21   am
    25    21    23    1
    26    23    24   ar
    27    24    25   ar
    28    25    26   ar
    29    26    27    1
    30    26    28   ar
    31    28    29   ar
    32     7     2   ar
    33    16    11   ar
    34    29    23   ar
    35    10     6   ar
    36    21    22    1
@<TRIPOS>MOLECULE
*****
 33 36 0 0 0
SMALL
GASTEIGER

@<TRIPOS>ATOM
      1 O         142.8757  144.1088  161.3317 O.3     1  UNL1       -0.4517
      2 C         143.4765  143.2876  162.4340 C.ar    1  UNL1        0.2312
      3 N         144.8122  142.6336  162.2394 N.ar    1  UNL1       -0.1892
      4 C         145.4129  141.8125  163.3416 C.ar    1  UNL1        0.2029
      5 N         144.6778  141.6454  164.6384 N.ar    1  UNL1       -0.2046
      6 C         143.3420  142.2994  164.8330 C.ar    1  UNL1        0.1715
      7 C         142.7414  143.1205  163.7308 C.ar    1  UNL1        0.1098
      8 C         141.4186  143.6417  164.2091 C.ar    1  UNL1        0.1283
      9 N         141.2018  143.1426  165.6069 N.ar    1  UNL1       -0.1619
     10 N         142.3905  142.3131  165.9925 N.ar    1  UNL1       -0.2111
     11 C         142.5924  141.6190  167.3068 C.ar    1  UNL1        0.0949
     12 C         143.1681  142.3697  168.4708 C.ar    1  UNL1        0.0201
     13 C         143.3700  141.6756  169.7852 C.ar    1  UNL1        0.0016
     14 C         142.9960  140.2308  169.9356 C.ar    1  UNL1        0.0010
     15 C         142.4202  139.4801  168.7716 C.ar    1  UNL1        0.0129
     16 C         142.2184  140.1742  167.4572 C.ar    1  UNL1        0.0753
     17 CL        141.6426  139.4234  166.2933 Cl      1  UNL1       -0.0807
     18 C         142.3708  143.4397  160.0878 C.3     1  UNL1        0.2722
     19 C         143.2840  143.2546  158.9123 C.2     1  UNL1        0.2701
     20 O         143.0120  143.9827  157.6294 O.2     1  UNL1       -0.2707
     21 N         144.4691  142.3414  159.0197 N.am    1  UNL1       -0.2651
     22 H         144.6476  141.8635  159.8617 H       1  UNL1        0.1564
     23 C         145.3823  142.1563  157.8442 C.ar    1  UNL1        0.1536
     24 C         145.0079  141.2057  156.7459 C.ar    1  UNL1        0.1328
     25 N         145.9210  141.0206  155.5705 N.ar    1  UNL1       -0.2436
     26 C         147.2088  141.7861  155.4932 C.ar    1  UNL1        0.0786
     27 C         148.1220  141.6010  154.3178 C.3     1  UNL1        0.0538
     28 C         147.5832  142.7367  156.5915 C.ar    1  UNL1        0.1150
     29 N         146.6699  142.9218  157.7670 N.ar    1  UNL1       -0.2262
     30 C         140.9527  142.9557  160.0194 C.3     1  UNL1        0.1951
     31 O         140.3620  142.1990  161.1721 O.3     1  UNL1       -0.3494
     32 C         138.1030  143.0330  162.1474 C.3     1  UNL1        0.0346
     33 C         138.8732  142.0660  161.2979 C.3     1  UNL1        0.1424
@<TRIPOS>BOND
     1    32    33    1
     2    33    31    1
     3    31    30    1
     4    18    30    1
     5    18     1    1
     6     1     2    1
     7     2     3   ar
     8     3     4   ar
     9     4     5   ar
    10     5     6   ar
    11     6     7   ar
    12     7     8   ar
    13     8     9   ar
    14     9    10   ar
    15    10    11    1
    16    11    12   ar
    17    12    13   ar
    18    13    14   ar
    19    14    15   ar
    20    15    16   ar
    21    16    17    1
    22    18    19    1
    23    19    20    2
    24    19    21   am
    25    21    23    1
    26    23    24   ar
    27    24    25   ar
    28    25    26   ar
    29    26    27    1
    30    26    28   ar
    31    28    29   ar
    32     7     2   ar
    33    16    11   ar
    34    29    23   ar
    35    10     6   ar
    36    21    22    1
@<TRIPOS>MOLECULE
*****
 33 36 0 0 0
SMALL
GASTEIGER

@<TRIPOS>ATOM
      1 O         140.7627  137.3970  162.2904 O.3     1  UNL1       -0.4517
      2 C         141.3091  138.1198  163.4859 C.ar    1  UNL1        0.2312
      3 N         142.7896  138.1669  163.7219 N.ar    1  UNL1       -0.1892
      4 C         143.3359  138.8896  164.9174 C.ar    1  UNL1        0.2029
      5 N         142.4016  139.5654  165.8768 N.ar    1  UNL1       -0.2046
      6 C         140.9211  139.5183  165.6408 C.ar    1  UNL1        0.1715
      7 C         140.3748  138.7955  164.4454 C.ar    1  UNL1        0.1098
      8 C         138.8800  138.9173  164.4732 C.ar    1  UNL1        0.1283
      9 N         138.5024  139.7154  165.6858 N.ar    1  UNL1       -0.1619
     10 N         139.7639  140.0868  166.4074 N.ar    1  UNL1       -0.2111
     11 C         139.8526  140.8864  167.6735 C.ar    1  UNL1        0.0949
     12 C         139.4062  140.2852  168.9731 C.ar    1  UNL1        0.0201
     13 C         139.4949  141.0847  170.2391 C.ar    1  UNL1        0.0016
     14 C         140.0301  142.4856  170.2055 C.ar    1  UNL1        0.0010
     15 C         140.4766  143.0868  168.9058 C.ar    1  UNL1        0.0129
     16 C         140.3878  142.2873  167.6398 C.ar    1  UNL1        0.0753
     17 CL        140.8343  142.8886  166.3402 Cl      1  UNL1       -0.0807
     18 C         140.5476  138.1342  161.0020 C.3     1  UNL1        0.2722
     19 C         141.7238  138.6559  160.2309 C.2     1  UNL1        0.2701
     20 O         142.9959  137.8629  160.1759 O.2     1  UNL1       -0.2707
     21 N         141.6280  139.9705  159.5149 N.am    1  UNL1       -0.2651
     22 H         140.7931  140.4909  159.5511 H       1  UNL1        0.1564
     23 C         142.8041  140.4921  158.7439 C.ar    1  UNL1        0.1536
     24 C         143.5733  141.6731  159.2572 C.ar    1  UNL1        0.1328
     25 N         144.7495  142.1948  158.4862 N.ar    1  UNL1       -0.2436
     26 C         145.1565  141.5354  157.2018 C.ar    1  UNL1        0.0786
     27 C         146.3326  142.0570  156.4308 C.3     1  UNL1        0.0538
     28 C         144.3873  140.3544  156.6885 C.ar    1  UNL1        0.1150
     29 N         143.2110  139.8327  157.4596 N.ar    1  UNL1       -0.2262
     30 C         139.1563  138.3499  160.4845 C.3     1  UNL1        0.1951
     31 O         138.7459  139.7003  159.9766 O.3     1  UNL1       -0.3494
     32 C         138.4689  142.2077  160.5979 C.3     1  UNL1        0.0346
     33 C         138.2928  140.7577  160.9392 C.3     1  UNL1        0.1424
@<TRIPOS>BOND
     1    32    33    1
     2    33    31    1
     3    31    30    1
     4    18    30    1
     5    18     1    1
     6     1     2    1
     7     2     3   ar
     8     3     4   ar
     9     4     5   ar
    10     5     6   ar
    11     6     7   ar
    12     7     8   ar
    13     8     9   ar
    14     9    10   ar
    15    10    11    1
    16    11    12   ar
    17    12    13   ar
    18    13    14   ar
    19    14    15   ar
    20    15    16   ar
    21    16    17    1
    22    18    19    1
    23    19    20    2
    24    19    21   am
    25    21    23    1
    26    23    24   ar
    27    24    25   ar
    28    25    26   ar
    29    26    27    1
    30    26    28   ar
    31    28    29   ar
    32     7     2   ar
    33    16    11   ar
    34    29    23   ar
    35    10     6   ar
    36    21    22    1
@<TRIPOS>MOLECULE
*****
 33 36 0 0 0
SMALL
GASTEIGER

@<TRIPOS>ATOM
      1 O         144.8801  140.9844  161.8023 O.3     1  UNL1       -0.4517
      2 C         144.4611  141.4144  163.1770 C.ar    1  UNL1        0.2312
      3 N         144.8799  142.7550  163.7037 N.ar    1  UNL1       -0.1892
      4 C         144.4609  143.1849  165.0783 C.ar    1  UNL1        0.2029
      5 N         143.6232  142.2742  165.9262 N.ar    1  UNL1       -0.2046
      6 C         143.2044  140.9337  165.3995 C.ar    1  UNL1        0.1715
      7 C         143.6234  140.5038  164.0249 C.ar    1  UNL1        0.1098
      8 C         143.0629  139.1347  163.7764 C.ar    1  UNL1        0.1283
      9 N         142.2976  138.7185  164.9974 N.ar    1  UNL1       -0.1619
     10 N         142.3850  139.8304  166.0006 N.ar    1  UNL1       -0.2111
     11 C         141.7624  139.8376  167.3652 C.ar    1  UNL1        0.0949
     12 C         142.5759  139.4456  168.5629 C.ar    1  UNL1        0.0201
     13 C         141.9533  139.4528  169.9276 C.ar    1  UNL1        0.0016
     14 C         140.5171  139.8521  170.0946 C.ar    1  UNL1        0.0010
     15 C         139.7036  140.2441  168.8969 C.ar    1  UNL1        0.0129
     16 C         140.3262  140.2369  167.5322 C.ar    1  UNL1        0.0753
     17 CL        139.5126  140.6289  166.3346 Cl      1  UNL1       -0.0807
     18 C         143.8911  141.0094  160.6747 C.3     1  UNL1        0.2722
     19 C         143.7744  139.8315  159.7532 C.2     1  UNL1        0.2701
     20 O         144.2666  138.4843  160.1921 O.2     1  UNL1       -0.2707
     21 N         143.1656  140.0010  158.3929 N.am    1  UNL1       -0.2651
     22 H         142.8425  140.8852  158.1048 H       1  UNL1        0.1564
     23 C         143.0488  138.8232  157.4714 C.ar    1  UNL1        0.1536
     24 C         141.8867  137.8835  157.5989 C.ar    1  UNL1        0.1328
     25 N         141.7699  136.7057  156.6774 N.ar    1  UNL1       -0.2436
     26 C         142.8154  136.4675  155.6285 C.ar    1  UNL1        0.0786
     27 C         142.6987  135.2897  154.7070 C.3     1  UNL1        0.0538
     28 C         143.9776  137.4073  155.5010 C.ar    1  UNL1        0.1150
     29 N         144.0943  138.5851  156.4225 N.ar    1  UNL1       -0.2262
     30 C         143.0189  142.2122  160.4686 C.3     1  UNL1        0.1951
     31 O         141.5325  142.0494  160.3507 O.3     1  UNL1       -0.3494
     32 C         140.2406  139.9285  161.1139 C.3     1  UNL1        0.0346
     33 C         140.7741  141.2997  161.4056 C.3     1  UNL1        0.1424
@<TRIPOS>BOND
     1    32    33    1
     2    33    31    1
     3    31    30    1
     4    18    30    1
     5    18     1    1
     6     1     2    1
     7     2     3   ar
     8     3     4   ar
     9     4     5   ar
    10     5     6   ar
    11     6     7   ar
    12     7     8   ar
    13     8     9   ar
    14     9    10   ar
    15    10    11    1
    16    11    12   ar
    17    12    13   ar
    18    13    14   ar
    19    14    15   ar
    20    15    16   ar
    21    16    17    1
    22    18    19    1
    23    19    20    2
    24    19    21   am
    25    21    23    1
    26    23    24   ar
    27    24    25   ar
    28    25    26   ar
    29    26    27    1
    30    26    28   ar
    31    28    29   ar
    32     7     2   ar
    33    16    11   ar
    34    29    23   ar
    35    10     6   ar
    36    21    22    1
