@<TRIPOS>MOLECULE
*****
 36 41 0 0 0
SMALL
GASTEIGER

@<TRIPOS>ATOM
      1 N         141.9826  138.0939  159.1814 N.3     1  UNL1       -0.2704
      2 C         140.9756  138.8376  160.0077 C.3     1  UNL1        0.0722
      3 C         141.3052  139.2300  161.4175 C.3     1  UNL1        0.0191
      4 C         142.6416  138.8785  162.0009 C.3     1  UNL1        0.0226
      5 C         143.6485  138.1347  161.1746 C.3     1  UNL1        0.0191
      6 C         143.3190  137.7424  159.7648 C.3     1  UNL1        0.0722
      7 C         143.9299  138.5975  162.7161 C.3     1  UNL1        0.0232
      8 C         143.8252  139.1661  164.1003 C.3     1  UNL1        0.0922
      9 N         142.4722  139.7984  164.2405 N.pl3   1  UNL1       -0.2932
     10 C         141.7408  139.6207  162.9431 C.3     1  UNL1        0.0922
     11 C         141.9436  140.4875  165.4635 C.ar    1  UNL1        0.1318
     12 C         142.5857  140.2455  166.7973 C.ar    1  UNL1        0.0359
     13 C         142.0570  140.9345  168.0203 C.ar    1  UNL1        0.0237
     14 C         140.8863  141.8657  167.9094 C.ar    1  UNL1        0.1055
     15 C         140.2441  142.1077  166.5756 C.ar    1  UNL1        0.1195
     16 N         140.7728  141.4186  165.3526 N.ar    1  UNL1       -0.2276
     17 N         140.3576  142.5548  169.1324 N.ar    1  UNL1       -0.1871
     18 C         139.9125  141.8851  170.3987 C.ar    1  UNL1        0.2259
     19 N         139.4610  142.9509  171.3528 N.ar    1  UNL1       -0.1045
     20 N         139.6271  144.2793  170.6761 N.ar    1  UNL1       -0.0222
     21 N         140.1812  144.0344  169.3039 N.ar    1  UNL1       -0.0384
     22 C         141.6530  137.7015  157.7716 C.3     1  UNL1        0.1063
     23 C         142.6873  137.0279  156.9193 C.3     1  UNL1        0.1483
     24 O         143.7517  137.8432  156.2466 O.3     1  UNL1       -0.3786
     25 H         144.3346  137.2577  155.7383 H       1  UNL1        0.2108
     26 C         140.9862  135.8103  154.7690 C.3     1  UNL1        0.0306
     27 C         141.8068  134.9302  155.6646 C.ar    1  UNL1       -0.0238
     28 C         142.6574  135.5390  156.7397 C.ar    1  UNL1        0.0015
     29 C         143.4780  134.6589  157.6353 C.ar    1  UNL1       -0.0020
     30 C         143.4481  133.1700  157.4557 C.ar    1  UNL1        0.0060
     31 C         142.5975  132.5612  156.3806 C.ar    1  UNL1        0.0748
     32 C         141.7769  133.4413  155.4851 C.ar    1  UNL1        0.0233
     33 C         141.0398  132.5614  154.5194 C.3     1  UNL1        0.2352
     34 O         141.4049  131.1375  154.8181 O.3     1  UNL1       -0.4404
     35 C         142.3676  131.1374  155.9684 C.2     1  UNL1        0.3413
     36 O         142.9910  129.9261  156.5963 O.2     1  UNL1       -0.2449
@<TRIPOS>BOND
     1    26    27    1
     2    27    28   ar
     3    28    23    1
     4    23    24    1
     5    23    22    1
     6    22     1    1
     7     1     2    1
     8     2     3    1
     9     3     4    1
    10     4     5    1
    11     5     6    1
    12     4     7    1
    13     7     8    1
    14     8     9    1
    15     9    11    1
    16    11    12   ar
    17    12    13   ar
    18    13    14   ar
    19    14    17    1
    20    17    18   ar
    21    18    19   ar
    22    19    20   ar
    23    20    21   ar
    24    14    15   ar
    25    15    16   ar
    26     9    10    1
    27    28    29   ar
    28    29    30   ar
    29    30    31   ar
    30    31    32   ar
    31    32    33    1
    32    33    34    1
    33    34    35    1
    34    35    36    2
    35    32    27   ar
    36     6     1    1
    37    16    11   ar
    38    35    31    1
    39    10     4    1
    40    21    17   ar
    41    24    25    1
@<TRIPOS>MOLECULE
*****
 36 41 0 0 0
SMALL
GASTEIGER

@<TRIPOS>ATOM
      1 N         141.8474  137.9625  157.5026 N.3     1  UNL1       -0.2704
      2 C         142.8408  138.1150  158.6160 C.3     1  UNL1        0.0722
      3 C         142.3647  138.3470  160.0194 C.3     1  UNL1        0.0191
      4 C         140.8952  138.4264  160.3094 C.3     1  UNL1        0.0226
      5 C         139.9017  138.2739  159.1960 C.3     1  UNL1        0.0191
      6 C         140.3778  138.0419  157.7926 C.3     1  UNL1        0.0722
      7 C         139.4649  138.5286  160.7496 C.3     1  UNL1        0.0232
      8 C         139.4515  138.7623  162.2314 C.3     1  UNL1        0.0922
      9 N         140.8736  138.8045  162.7068 N.pl3   1  UNL1       -0.2932
     10 C         141.7658  138.5970  161.5190 C.3     1  UNL1        0.0922
     11 C         141.3243  139.0170  164.1215 C.ar    1  UNL1        0.1318
     12 C         142.7133  138.6277  164.5327 C.ar    1  UNL1        0.0359
     13 C         143.1640  138.8403  165.9475 C.ar    1  UNL1        0.0237
     14 C         142.2257  139.4421  166.9512 C.ar    1  UNL1        0.1055
     15 C         140.8366  139.8314  166.5400 C.ar    1  UNL1        0.1195
     16 N         140.3860  139.6188  165.1252 N.ar    1  UNL1       -0.2276
     17 N         142.6764  139.6546  168.3660 N.ar    1  UNL1       -0.1871
     18 C         142.8351  140.9795  169.0512 C.ar    1  UNL1        0.2259
     19 N         143.3043  140.7233  170.4527 N.ar    1  UNL1       -0.1045
     20 N         143.4355  139.2400  170.6337 N.ar    1  UNL1       -0.0222
     21 N         143.0474  138.5795  169.3440 N.ar    1  UNL1       -0.0384
     22 C         142.3234  137.7305  156.0992 C.3     1  UNL1        0.1063
     23 C         143.4501  136.7755  155.8376 C.3     1  UNL1        0.1483
     24 O         144.8227  137.2996  155.5353 O.3     1  UNL1       -0.3786
     25 H         145.4286  136.5557  155.3924 H       1  UNL1        0.2108
     26 C         142.1938  135.3983  153.4871 C.3     1  UNL1        0.0306
     27 C         142.5762  134.6077  154.7031 C.ar    1  UNL1       -0.0238
     28 C         143.2043  135.2963  155.8784 C.ar    1  UNL1        0.0015
     29 C         143.5867  134.5057  157.0945 C.ar    1  UNL1       -0.0020
     30 C         143.3409  133.0266  157.1353 C.ar    1  UNL1        0.0060
     31 C         142.7128  132.3380  155.9600 C.ar    1  UNL1        0.0748
     32 C         142.3304  133.1286  154.7440 C.ar    1  UNL1        0.0233
     33 C         141.7324  132.1825  153.7452 C.3     1  UNL1        0.2352
     34 O         141.7451  130.8073  154.3440 O.3     1  UNL1       -0.4404
     35 C         142.3511  130.9034  155.7128 C.2     1  UNL1        0.3413
     36 O         142.5588  129.7648  156.6670 O.2     1  UNL1       -0.2449
@<TRIPOS>BOND
     1    26    27    1
     2    27    28   ar
     3    28    23    1
     4    23    24    1
     5    23    22    1
     6    22     1    1
     7     1     2    1
     8     2     3    1
     9     3     4    1
    10     4     5    1
    11     5     6    1
    12     4     7    1
    13     7     8    1
    14     8     9    1
    15     9    11    1
    16    11    12   ar
    17    12    13   ar
    18    13    14   ar
    19    14    17    1
    20    17    18   ar
    21    18    19   ar
    22    19    20   ar
    23    20    21   ar
    24    14    15   ar
    25    15    16   ar
    26     9    10    1
    27    28    29   ar
    28    29    30   ar
    29    30    31   ar
    30    31    32   ar
    31    32    33    1
    32    33    34    1
    33    34    35    1
    34    35    36    2
    35    32    27   ar
    36     6     1    1
    37    16    11   ar
    38    35    31    1
    39    10     4    1
    40    21    17   ar
    41    24    25    1
@<TRIPOS>MOLECULE
*****
 36 41 0 0 0
SMALL
GASTEIGER

@<TRIPOS>ATOM
      1 N         138.5854  141.1993  164.0380 N.3     1  UNL1       -0.2704
      2 C         138.9650  140.8710  162.6245 C.3     1  UNL1        0.0722
      3 C         139.3575  141.9676  161.6794 C.3     1  UNL1        0.0191
      4 C         139.3704  143.3925  162.1477 C.3     1  UNL1        0.0226
      5 C         138.9908  143.7209  163.5612 C.3     1  UNL1        0.0191
      6 C         138.5983  142.6243  164.5064 C.3     1  UNL1        0.0722
      7 C         139.4298  144.8561  162.4711 C.3     1  UNL1        0.0232
      8 C         139.8685  145.5862  161.2364 C.3     1  UNL1        0.0922
      9 N         140.0803  144.5739  160.1499 N.pl3   1  UNL1       -0.2932
     10 C         139.7724  143.2182  160.7131 C.3     1  UNL1        0.0922
     11 C         140.5223  144.8660  158.7466 C.ar    1  UNL1        0.1318
     12 C         139.7367  144.3311  157.5862 C.ar    1  UNL1        0.0359
     13 C         140.1788  144.6232  156.1828 C.ar    1  UNL1        0.0237
     14 C         141.4063  145.4504  155.9400 C.ar    1  UNL1        0.1055
     15 C         142.1919  145.9854  157.1005 C.ar    1  UNL1        0.1195
     16 N         141.7498  145.6932  158.5038 N.ar    1  UNL1       -0.2276
     17 N         141.8483  145.7425  154.5367 N.ar    1  UNL1       -0.1871
     18 C         141.1070  146.5770  153.5345 C.ar    1  UNL1        0.2259
     19 N         141.9098  146.6018  152.2676 N.ar    1  UNL1       -0.1045
     20 N         143.1471  145.7826  152.4868 N.ar    1  UNL1       -0.0222
     21 N         143.1091  145.2516  153.8891 N.ar    1  UNL1       -0.0384
     22 C         138.1929  140.1027  164.9833 C.3     1  UNL1        0.1063
     23 C         139.2292  139.4564  165.8540 C.3     1  UNL1        0.1483
     24 O         139.8703  138.1691  165.4275 O.3     1  UNL1       -0.3786
     25 H         140.5124  137.8897  166.0987 H       1  UNL1        0.2108
     26 C         141.6626  141.2063  165.9823 C.3     1  UNL1        0.0306
     27 C         140.8412  140.9723  167.2155 C.ar    1  UNL1       -0.0238
     28 C         139.6246  140.0974  167.1513 C.ar    1  UNL1        0.0015
     29 C         138.8032  139.8633  168.3844 C.ar    1  UNL1       -0.0020
     30 C         139.1985  140.5043  169.6817 C.ar    1  UNL1        0.0060
     31 C         140.4151  141.3792  169.7458 C.ar    1  UNL1        0.0748
     32 C         141.2365  141.6132  168.5127 C.ar    1  UNL1        0.0233
     33 C         142.3754  142.5179  168.8793 C.3     1  UNL1        0.2352
     34 O         142.2580  142.8431  170.3389 O.3     1  UNL1       -0.4404
     35 C         141.0465  142.1393  170.8744 C.2     1  UNL1        0.3413
     36 O         140.5529  142.1871  172.2901 O.2     1  UNL1       -0.2449
@<TRIPOS>BOND
     1    26    27    1
     2    27    28   ar
     3    28    23    1
     4    23    24    1
     5    23    22    1
     6    22     1    1
     7     1     2    1
     8     2     3    1
     9     3     4    1
    10     4     5    1
    11     5     6    1
    12     4     7    1
    13     7     8    1
    14     8     9    1
    15     9    11    1
    16    11    12   ar
    17    12    13   ar
    18    13    14   ar
    19    14    17    1
    20    17    18   ar
    21    18    19   ar
    22    19    20   ar
    23    20    21   ar
    24    14    15   ar
    25    15    16   ar
    26     9    10    1
    27    28    29   ar
    28    29    30   ar
    29    30    31   ar
    30    31    32   ar
    31    32    33    1
    32    33    34    1
    33    34    35    1
    34    35    36    2
    35    32    27   ar
    36     6     1    1
    37    16    11   ar
    38    35    31    1
    39    10     4    1
    40    21    17   ar
    41    24    25    1
@<TRIPOS>MOLECULE
*****
 36 41 0 0 0
SMALL
GASTEIGER

@<TRIPOS>ATOM
      1 N         142.2744  142.1809  167.0335 N.3     1  UNL1       -0.2704
      2 C         141.1494  142.3966  166.0650 C.3     1  UNL1        0.0722
      3 C         141.4227  143.0045  164.7213 C.3     1  UNL1        0.0191
      4 C         142.8211  143.3967  164.3460 C.3     1  UNL1        0.0226
      5 C         143.9460  143.1811  165.3144 C.3     1  UNL1        0.0191
      6 C         143.6727  142.5732  166.6581 C.3     1  UNL1        0.0722
      7 C         144.1603  143.8366  163.8332 C.3     1  UNL1        0.0232
      8 C         143.9701  144.3833  162.4493 C.3     1  UNL1        0.0922
      9 N         142.5132  144.2813  162.1068 N.pl3   1  UNL1       -0.2932
     10 C         141.8031  143.6716  163.2790 C.3     1  UNL1        0.0922
     11 C         141.8781  144.7131  160.8185 C.ar    1  UNL1        0.1318
     12 C         140.6099  145.5139  160.8389 C.ar    1  UNL1        0.0359
     13 C         139.9747  145.9458  159.5505 C.ar    1  UNL1        0.0237
     14 C         140.6077  145.5769  158.2416 C.ar    1  UNL1        0.1055
     15 C         141.8760  144.7761  158.2211 C.ar    1  UNL1        0.1195
     16 N         142.5111  144.3443  159.5096 N.ar    1  UNL1       -0.2276
     17 N         139.9725  146.0088  156.9532 N.ar    1  UNL1       -0.1871
     18 C         139.3420  147.3432  156.6849 C.ar    1  UNL1        0.2259
     19 N         138.8361  147.3413  155.2728 N.ar    1  UNL1       -0.1045
     20 N         139.1541  146.0057  154.6683 N.ar    1  UNL1       -0.0222
     21 N         139.8564  145.1822  155.7069 N.ar    1  UNL1       -0.0384
     22 C         142.0010  141.5730  168.3773 C.3     1  UNL1        0.1063
     23 C         141.3821  140.2099  168.4719 C.3     1  UNL1        0.1483
     24 O         141.3238  139.5028  169.7935 O.3     1  UNL1       -0.3786
     25 H         140.8959  138.6397  169.6798 H       1  UNL1        0.2108
     26 C         143.2081  138.7850  166.5653 C.3     1  UNL1        0.0306
     27 C         141.7343  138.8415  166.2917 C.ar    1  UNL1       -0.0238
     28 C         140.8213  139.5540  167.2450 C.ar    1  UNL1        0.0015
     29 C         139.3476  139.6105  166.9714 C.ar    1  UNL1       -0.0020
     30 C         138.7868  138.9546  165.7445 C.ar    1  UNL1        0.0060
     31 C         139.6998  138.2421  164.7912 C.ar    1  UNL1        0.0748
     32 C         141.1736  138.1856  165.0648 C.ar    1  UNL1        0.0233
     33 C         141.8224  137.4168  163.9522 C.3     1  UNL1        0.2352
     34 O         140.7497  136.9981  162.9910 O.3     1  UNL1       -0.4404
     35 C         139.4379  137.5082  163.5095 C.2     1  UNL1        0.3413
     36 O         138.0991  137.3178  162.8604 O.2     1  UNL1       -0.2449
@<TRIPOS>BOND
     1    26    27    1
     2    27    28   ar
     3    28    23    1
     4    23    24    1
     5    23    22    1
     6    22     1    1
     7     1     2    1
     8     2     3    1
     9     3     4    1
    10     4     5    1
    11     5     6    1
    12     4     7    1
    13     7     8    1
    14     8     9    1
    15     9    11    1
    16    11    12   ar
    17    12    13   ar
    18    13    14   ar
    19    14    17    1
    20    17    18   ar
    21    18    19   ar
    22    19    20   ar
    23    20    21   ar
    24    14    15   ar
    25    15    16   ar
    26     9    10    1
    27    28    29   ar
    28    29    30   ar
    29    30    31   ar
    30    31    32   ar
    31    32    33    1
    32    33    34    1
    33    34    35    1
    34    35    36    2
    35    32    27   ar
    36     6     1    1
    37    16    11   ar
    38    35    31    1
    39    10     4    1
    40    21    17   ar
    41    24    25    1
@<TRIPOS>MOLECULE
*****
 36 41 0 0 0
SMALL
GASTEIGER

@<TRIPOS>ATOM
      1 N         140.0205  139.9916  158.7796 N.3     1  UNL1       -0.2704
      2 C         140.4583  140.9612  159.8370 C.3     1  UNL1        0.0722
      3 C         140.2905  140.6158  161.2870 C.3     1  UNL1        0.0191
      4 C         139.6849  139.3008  161.6795 C.3     1  UNL1        0.0226
      5 C         139.2471  138.3312  160.6221 C.3     1  UNL1        0.0191
      6 C         139.4149  138.6766  159.1721 C.3     1  UNL1        0.0722
      7 C         139.0990  138.0307  162.2213 C.3     1  UNL1        0.0232
      8 C         139.1255  138.1097  163.7190 C.3     1  UNL1        0.0922
      9 N         139.7279  139.4288  164.1029 N.pl3   1  UNL1       -0.2932
     10 C         140.0737  140.1649  162.8425 C.3     1  UNL1        0.0922
     11 C         139.9463  139.9246  165.5016 C.ar    1  UNL1        0.1318
     12 C         139.0642  139.4420  166.6147 C.ar    1  UNL1        0.0359
     13 C         139.2826  139.9379  168.0134 C.ar    1  UNL1        0.0237
     14 C         140.3830  140.9164  168.2991 C.ar    1  UNL1        0.1055
     15 C         141.2651  141.3991  167.1859 C.ar    1  UNL1        0.1195
     16 N         141.0467  140.9032  165.7872 N.ar    1  UNL1       -0.2276
     17 N         140.6013  141.4123  169.6978 N.ar    1  UNL1       -0.1871
     18 C         141.8954  141.3724  170.4554 C.ar    1  UNL1        0.2259
     19 N         141.6578  141.9705  171.8103 N.ar    1  UNL1       -0.1045
     20 N         140.2170  142.3800  171.8901 N.ar    1  UNL1       -0.0222
     21 N         139.5641  142.0350  170.5845 N.ar    1  UNL1       -0.0384
     22 C         140.1883  140.3370  157.3295 C.3     1  UNL1        0.1063
     23 C         141.3790  139.8307  156.5708 C.3     1  UNL1        0.1483
     24 O         142.4869  140.7712  156.1991 O.3     1  UNL1       -0.3786
     25 H         143.1740  140.2864  155.7157 H       1  UNL1        0.2108
     26 C         142.9756  137.9196  158.2438 C.3     1  UNL1        0.0306
     27 C         142.2603  137.4283  157.0203 C.ar    1  UNL1       -0.0238
     28 C         141.4620  138.3838  156.1838 C.ar    1  UNL1        0.0015
     29 C         140.7467  137.8925  154.9603 C.ar    1  UNL1       -0.0020
     30 C         140.8297  136.4457  154.5733 C.ar    1  UNL1        0.0060
     31 C         141.6279  135.4902  155.4097 C.ar    1  UNL1        0.0748
     32 C         142.3433  135.9815  156.6332 C.ar    1  UNL1        0.0233
     33 C         143.0482  134.8142  157.2581 C.3     1  UNL1        0.2352
     34 O         142.7686  133.6014  156.4208 O.3     1  UNL1       -0.4404
     35 C         141.8908  134.0193  155.2784 C.2     1  UNL1        0.3413
     36 O         141.3677  133.1234  154.1950 O.2     1  UNL1       -0.2449
@<TRIPOS>BOND
     1    26    27    1
     2    27    28   ar
     3    28    23    1
     4    23    24    1
     5    23    22    1
     6    22     1    1
     7     1     2    1
     8     2     3    1
     9     3     4    1
    10     4     5    1
    11     5     6    1
    12     4     7    1
    13     7     8    1
    14     8     9    1
    15     9    11    1
    16    11    12   ar
    17    12    13   ar
    18    13    14   ar
    19    14    17    1
    20    17    18   ar
    21    18    19   ar
    22    19    20   ar
    23    20    21   ar
    24    14    15   ar
    25    15    16   ar
    26     9    10    1
    27    28    29   ar
    28    29    30   ar
    29    30    31   ar
    30    31    32   ar
    31    32    33    1
    32    33    34    1
    33    34    35    1
    34    35    36    2
    35    32    27   ar
    36     6     1    1
    37    16    11   ar
    38    35    31    1
    39    10     4    1
    40    21    17   ar
    41    24    25    1
@<TRIPOS>MOLECULE
*****
 36 41 0 0 0
SMALL
GASTEIGER

@<TRIPOS>ATOM
      1 N         138.2680  140.3403  163.5614 N.3     1  UNL1       -0.2704
      2 C         138.5575  141.7658  163.1950 C.3     1  UNL1        0.0722
      3 C         138.6786  142.1597  161.7528 C.3     1  UNL1        0.0191
      4 C         138.5102  141.1282  160.6769 C.3     1  UNL1        0.0226
      5 C         138.2207  139.7027  161.0432 C.3     1  UNL1        0.0191
      6 C         138.0995  139.3088  162.4855 C.3     1  UNL1        0.0722
      7 C         138.3675  140.2121  159.4977 C.3     1  UNL1        0.0232
      8 C         138.5644  141.0252  158.2525 C.3     1  UNL1        0.0922
      9 N         138.8288  142.4437  158.6623 N.pl3   1  UNL1       -0.2932
     10 C         138.7953  142.5074  160.1605 C.3     1  UNL1        0.0922
     11 C         139.0822  143.5962  157.7363 C.ar    1  UNL1        0.1318
     12 C         138.5642  143.5556  156.3291 C.ar    1  UNL1        0.0359
     13 C         138.8176  144.7081  155.4031 C.ar    1  UNL1        0.0237
     14 C         139.5890  145.9013  155.8843 C.ar    1  UNL1        0.1055
     15 C         140.1069  145.9419  157.2915 C.ar    1  UNL1        0.1195
     16 N         139.8535  144.7893  158.2174 N.ar    1  UNL1       -0.2276
     17 N         139.8424  147.0538  154.9583 N.ar    1  UNL1       -0.1871
     18 C         139.2572  148.4295  155.0821 C.ar    1  UNL1        0.2259
     19 N         139.7786  149.2589  153.9463 N.ar    1  UNL1       -0.1045
     20 N         140.6859  148.3959  153.1204 N.ar    1  UNL1       -0.0222
     21 N         140.7253  147.0331  153.7459 N.ar    1  UNL1       -0.0384
     22 C         138.1468  139.9464  165.0037 C.3     1  UNL1        0.1063
     23 C         139.3506  139.4522  165.7498 C.3     1  UNL1        0.1483
     24 O         140.1694  138.3264  165.1910 O.3     1  UNL1       -0.3786
     25 H         140.9051  138.1322  165.7926 H       1  UNL1        0.2108
     26 C         141.7712  141.2175  165.9055 C.3     1  UNL1        0.0306
     27 C         140.9459  140.9665  167.1326 C.ar    1  UNL1       -0.0238
     28 C         139.7356  140.0838  167.0548 C.ar    1  UNL1        0.0015
     29 C         138.9103  139.8328  168.2819 C.ar    1  UNL1       -0.0020
     30 C         139.2952  140.4643  169.5868 C.ar    1  UNL1        0.0060
     31 C         140.5055  141.3470  169.6646 C.ar    1  UNL1        0.0748
     32 C         141.3308  141.5980  168.4375 C.ar    1  UNL1        0.0233
     33 C         142.4618  142.5071  168.8176 C.3     1  UNL1        0.2352
     34 O         142.3355  142.8179  170.2796 O.3     1  UNL1       -0.4404
     35 C         141.1265  142.1009  170.8031 C.2     1  UNL1        0.3413
     36 O         140.6261  142.1322  172.2168 O.2     1  UNL1       -0.2449
@<TRIPOS>BOND
     1    26    27    1
     2    27    28   ar
     3    28    23    1
     4    23    24    1
     5    23    22    1
     6    22     1    1
     7     1     2    1
     8     2     3    1
     9     3     4    1
    10     4     5    1
    11     5     6    1
    12     4     7    1
    13     7     8    1
    14     8     9    1
    15     9    11    1
    16    11    12   ar
    17    12    13   ar
    18    13    14   ar
    19    14    17    1
    20    17    18   ar
    21    18    19   ar
    22    19    20   ar
    23    20    21   ar
    24    14    15   ar
    25    15    16   ar
    26     9    10    1
    27    28    29   ar
    28    29    30   ar
    29    30    31   ar
    30    31    32   ar
    31    32    33    1
    32    33    34    1
    33    34    35    1
    34    35    36    2
    35    32    27   ar
    36     6     1    1
    37    16    11   ar
    38    35    31    1
    39    10     4    1
    40    21    17   ar
    41    24    25    1
@<TRIPOS>MOLECULE
*****
 36 41 0 0 0
SMALL
GASTEIGER

@<TRIPOS>ATOM
      1 N         143.7088  139.7914  163.1705 N.3     1  UNL1       -0.2704
      2 C         143.3263  138.3928  162.7864 C.3     1  UNL1        0.0722
      3 C         143.1159  138.0423  161.3432 C.3     1  UNL1        0.0191
      4 C         143.2880  139.0905  160.2841 C.3     1  UNL1        0.0226
      5 C         143.6704  140.4891  160.6682 C.3     1  UNL1        0.0191
      6 C         143.8808  140.8396  162.1114 C.3     1  UNL1        0.0722
      7 C         143.4233  140.0274  159.1205 C.3     1  UNL1        0.0232
      8 C         143.1242  139.2575  157.8683 C.3     1  UNL1        0.0922
      9 N         142.8041  137.8448  158.2580 N.pl3   1  UNL1       -0.2932
     10 C         142.9053  137.7416  159.7510 C.3     1  UNL1        0.0922
     11 C         142.4457  136.7310  157.3196 C.ar    1  UNL1        0.1318
     12 C         141.3140  136.9020  156.3501 C.ar    1  UNL1        0.0359
     13 C         140.9556  135.7881  155.4115 C.ar    1  UNL1        0.0237
     14 C         141.7289  134.5031  155.4425 C.ar    1  UNL1        0.1055
     15 C         142.8607  134.3321  156.4121 C.ar    1  UNL1        0.1195
     16 N         143.2190  135.4460  157.3505 N.ar    1  UNL1       -0.2276
     17 N         141.3705  133.3892  154.5040 N.ar    1  UNL1       -0.1871
     18 C         141.5124  133.4143  153.0109 C.ar    1  UNL1        0.2259
     19 N         141.0369  132.0953  152.4779 N.ar    1  UNL1       -0.1045
     20 N         140.6011  131.2551  153.6416 N.ar    1  UNL1       -0.0222
     21 N         140.8073  132.0548  154.8938 N.ar    1  UNL1       -0.0384
     22 C         143.9192  140.1419  164.6138 C.3     1  UNL1        0.1063
     23 C         142.7461  140.4996  165.4774 C.3     1  UNL1        0.1483
     24 O         142.7518  140.1445  166.9348 O.3     1  UNL1       -0.3786
     25 H         141.9252  140.4448  167.3440 H       1  UNL1        0.2108
     26 C         140.2685  138.9654  164.7648 C.3     1  UNL1        0.0306
     27 C         140.3286  140.4453  164.5274 C.ar    1  UNL1       -0.0238
     28 C         141.5673  141.2124  164.8837 C.ar    1  UNL1        0.0015
     29 C         141.6273  142.6923  164.6464 C.ar    1  UNL1       -0.0020
     30 C         140.4486  143.4051  164.0527 C.ar    1  UNL1        0.0060
     31 C         139.2099  142.6380  163.6964 C.ar    1  UNL1        0.0748
     32 C         139.1498  141.1581  163.9338 C.ar    1  UNL1        0.0233
     33 C         137.8038  140.6710  163.4855 C.3     1  UNL1        0.2352
     34 O         137.0319  141.8498  162.9711 O.3     1  UNL1       -0.4404
     35 C         137.9009  143.0655  163.1014 C.2     1  UNL1        0.3413
     36 O         137.5267  144.4633  162.7062 O.2     1  UNL1       -0.2449
@<TRIPOS>BOND
     1    26    27    1
     2    27    28   ar
     3    28    23    1
     4    23    24    1
     5    23    22    1
     6    22     1    1
     7     1     2    1
     8     2     3    1
     9     3     4    1
    10     4     5    1
    11     5     6    1
    12     4     7    1
    13     7     8    1
    14     8     9    1
    15     9    11    1
    16    11    12   ar
    17    12    13   ar
    18    13    14   ar
    19    14    17    1
    20    17    18   ar
    21    18    19   ar
    22    19    20   ar
    23    20    21   ar
    24    14    15   ar
    25    15    16   ar
    26     9    10    1
    27    28    29   ar
    28    29    30   ar
    29    30    31   ar
    30    31    32   ar
    31    32    33    1
    32    33    34    1
    33    34    35    1
    34    35    36    2
    35    32    27   ar
    36     6     1    1
    37    16    11   ar
    38    35    31    1
    39    10     4    1
    40    21    17   ar
    41    24    25    1
@<TRIPOS>MOLECULE
*****
 36 41 0 0 0
SMALL
GASTEIGER

@<TRIPOS>ATOM
      1 N         140.0703  138.7348  163.1400 N.3     1  UNL1       -0.2704
      2 C         141.4206  139.3327  162.8772 C.3     1  UNL1        0.0722
      3 C         141.9200  139.4675  161.4692 C.3     1  UNL1        0.0191
      4 C         141.0690  139.0044  160.3240 C.3     1  UNL1        0.0226
      5 C         139.7187  138.4064  160.5869 C.3     1  UNL1        0.0191
      6 C         139.2194  138.2716  161.9948 C.3     1  UNL1        0.0722
      7 C         140.3344  138.5880  159.0843 C.3     1  UNL1        0.0232
      8 C         141.2021  138.9055  157.9026 C.3     1  UNL1        0.0922
      9 N         142.4730  139.5182  158.4120 N.pl3   1  UNL1       -0.2932
     10 C         142.3908  139.5793  159.9085 C.3     1  UNL1        0.0922
     11 C         143.6240  139.9873  157.5724 C.ar    1  UNL1        0.1318
     12 C         144.3194  141.2741  157.9048 C.ar    1  UNL1        0.0359
     13 C         145.4704  141.7432  157.0652 C.ar    1  UNL1        0.0237
     14 C         145.9261  140.9256  155.8931 C.ar    1  UNL1        0.1055
     15 C         145.2307  139.6387  155.5606 C.ar    1  UNL1        0.1195
     16 N         144.0796  139.1696  156.4003 N.ar    1  UNL1       -0.2276
     17 N         147.0771  141.3947  155.0534 N.ar    1  UNL1       -0.1871
     18 C         148.4327  141.7917  155.5584 C.ar    1  UNL1        0.2259
     19 N         149.2680  142.1916  154.3785 N.ar    1  UNL1       -0.1045
     20 N         148.4288  142.0418  153.1443 N.ar    1  UNL1       -0.0222
     21 N         147.0747  141.5493  153.5614 N.ar    1  UNL1       -0.0384
     22 C         139.5709  138.6000  164.5480 C.3     1  UNL1        0.1063
     23 C         138.8929  139.7584  165.2175 C.3     1  UNL1        0.1483
     24 O         137.7774  140.4795  164.5204 O.3     1  UNL1       -0.3786
     25 H         137.4523  141.1967  165.0869 H       1  UNL1        0.2108
     26 C         140.9761  141.8970  165.5126 C.3     1  UNL1        0.0306
     27 C         140.3719  141.2651  166.7315 C.ar    1  UNL1       -0.0238
     28 C         139.3303  140.1959  166.5840 C.ar    1  UNL1        0.0015
     29 C         138.7261  139.5641  167.8029 C.ar    1  UNL1       -0.0020
     30 C         139.1635  140.0015  169.1694 C.ar    1  UNL1        0.0060
     31 C         140.2051  141.0708  169.3169 C.ar    1  UNL1        0.0748
     32 C         140.8093  141.7026  168.0980 C.ar    1  UNL1        0.0233
     33 C         141.8081  142.7251  168.5527 C.3     1  UNL1        0.2352
     34 O         141.8212  142.7253  170.0527 O.3     1  UNL1       -0.4404
     35 C         140.8305  141.7029  170.5250 C.2     1  UNL1        0.3413
     36 O         140.5198  141.3708  171.9544 O.2     1  UNL1       -0.2449
@<TRIPOS>BOND
     1    26    27    1
     2    27    28   ar
     3    28    23    1
     4    23    24    1
     5    23    22    1
     6    22     1    1
     7     1     2    1
     8     2     3    1
     9     3     4    1
    10     4     5    1
    11     5     6    1
    12     4     7    1
    13     7     8    1
    14     8     9    1
    15     9    11    1
    16    11    12   ar
    17    12    13   ar
    18    13    14   ar
    19    14    17    1
    20    17    18   ar
    21    18    19   ar
    22    19    20   ar
    23    20    21   ar
    24    14    15   ar
    25    15    16   ar
    26     9    10    1
    27    28    29   ar
    28    29    30   ar
    29    30    31   ar
    30    31    32   ar
    31    32    33    1
    32    33    34    1
    33    34    35    1
    34    35    36    2
    35    32    27   ar
    36     6     1    1
    37    16    11   ar
    38    35    31    1
    39    10     4    1
    40    21    17   ar
    41    24    25    1
@<TRIPOS>MOLECULE
*****
 36 41 0 0 0
SMALL
GASTEIGER

@<TRIPOS>ATOM
      1 N         141.2140  144.6618  158.4856 N.3     1  UNL1       -0.2704
      2 C         141.1806  145.2953  159.8448 C.3     1  UNL1        0.0722
      3 C         141.2047  144.4356  161.0738 C.3     1  UNL1        0.0191
      4 C         141.2622  142.9424  160.9435 C.3     1  UNL1        0.0226
      5 C         141.2955  142.3089  159.5843 C.3     1  UNL1        0.0191
      6 C         141.2714  143.1685  158.3554 C.3     1  UNL1        0.0722
      7 C         141.3187  141.4437  160.9702 C.3     1  UNL1        0.0232
      8 C         141.3254  141.0055  162.4048 C.3     1  UNL1        0.0922
      9 N         141.2730  142.2335  163.2648 N.pl3   1  UNL1       -0.2932
     10 C         141.2339  143.4305  162.3617 C.3     1  UNL1        0.0922
     11 C         141.2617  142.2597  164.7644 C.ar    1  UNL1        0.1318
     12 C         140.1693  142.9843  165.4936 C.ar    1  UNL1        0.0359
     13 C         140.1580  143.0105  166.9934 C.ar    1  UNL1        0.0237
     14 C         141.2390  142.3122  167.7639 C.ar    1  UNL1        0.1055
     15 C         142.3314  141.5876  167.0347 C.ar    1  UNL1        0.1195
     16 N         142.3427  141.5614  165.5350 N.ar    1  UNL1       -0.2276
     17 N         141.2277  142.3385  169.2636 N.ar    1  UNL1       -0.1871
     18 C         140.0392  142.0779  170.1411 C.ar    1  UNL1        0.2259
     19 N         140.4798  142.2083  171.5689 N.ar    1  UNL1       -0.1045
     20 N         141.9405  142.5494  171.5740 N.ar    1  UNL1       -0.0222
     21 N         142.4027  142.6299  170.1493 N.ar    1  UNL1       -0.0384
     22 C         141.1899  145.5215  157.2566 C.3     1  UNL1        0.1063
     23 C         139.8897  145.8035  156.5640 C.3     1  UNL1        0.1483
     24 O         138.8971  144.6988  156.3533 O.3     1  UNL1       -0.3786
     25 H         138.1171  145.0482  155.8944 H       1  UNL1        0.2108
     26 C         140.7205  146.6532  153.8094 C.3     1  UNL1        0.0306
     27 C         139.9974  147.6152  154.7048 C.ar    1  UNL1       -0.0238
     28 C         139.5820  147.1903  156.0821 C.ar    1  UNL1        0.0015
     29 C         138.8588  148.1523  156.9775 C.ar    1  UNL1       -0.0020
     30 C         138.5511  149.5390  156.4957 C.ar    1  UNL1        0.0060
     31 C         138.9666  149.9638  155.1184 C.ar    1  UNL1        0.0748
     32 C         139.6897  149.0019  154.2230 C.ar    1  UNL1        0.0233
     33 C         139.9723  149.6994  152.9255 C.3     1  UNL1        0.2352
     34 O         139.4239  151.0924  153.0189 O.3     1  UNL1       -0.4404
     35 C         138.8023  151.2558  154.3743 C.2     1  UNL1        0.3413
     36 O         138.1337  152.4939  154.8942 O.2     1  UNL1       -0.2449
@<TRIPOS>BOND
     1    26    27    1
     2    27    28   ar
     3    28    23    1
     4    23    24    1
     5    23    22    1
     6    22     1    1
     7     1     2    1
     8     2     3    1
     9     3     4    1
    10     4     5    1
    11     5     6    1
    12     4     7    1
    13     7     8    1
    14     8     9    1
    15     9    11    1
    16    11    12   ar
    17    12    13   ar
    18    13    14   ar
    19    14    17    1
    20    17    18   ar
    21    18    19   ar
    22    19    20   ar
    23    20    21   ar
    24    14    15   ar
    25    15    16   ar
    26     9    10    1
    27    28    29   ar
    28    29    30   ar
    29    30    31   ar
    30    31    32   ar
    31    32    33    1
    32    33    34    1
    33    34    35    1
    34    35    36    2
    35    32    27   ar
    36     6     1    1
    37    16    11   ar
    38    35    31    1
    39    10     4    1
    40    21    17   ar
    41    24    25    1
