@<TRIPOS>MOLECULE
*****
 30 34 0 0 0
SMALL
GASTEIGER

@<TRIPOS>ATOM
      1 C         139.9341  139.9781  167.3906 C.ar    1  UNL1        0.0041
      2 C         138.5867  139.3985  167.7044 C.ar    1  UNL1        0.0002
      3 C         137.8970  138.5195  166.7036 C.ar    1  UNL1        0.0015
      4 C         138.5546  138.2202  165.3891 C.ar    1  UNL1        0.0192
      5 C         139.9020  138.7999  165.0753 C.ar    1  UNL1        0.0856
      6 N         140.5596  138.5006  163.7608 N.ar    1  UNL1       -0.2260
      7 C         141.9070  139.0803  163.4471 C.ar    1  UNL1        0.1712
      8 N         142.5968  139.9593  164.4479 N.ar    1  UNL1       -0.2115
      9 C         141.9392  140.2586  165.7624 C.ar    1  UNL1        0.1318
     10 C         140.5917  139.6789  166.0761 C.ar    1  UNL1        0.0491
     11 C         142.0035  142.6152  170.3929 C.ar    1  UNL1        0.0000
     12 C         142.2575  141.1369  170.3923 C.ar    1  UNL1        0.0000
     13 C         141.5677  140.2579  169.3915 C.ar    1  UNL1        0.0000
     14 C         140.6239  140.8572  168.3914 C.ar    1  UNL1        0.0001
     15 C         140.3700  142.3355  168.3921 C.ar    1  UNL1        0.0000
     16 C         141.0597  143.2145  169.3928 C.ar    1  UNL1        0.0000
     17 C         142.5646  138.7810  162.1326 C.ar    1  UNL1        0.0858
     18 C         143.9210  139.2517  161.6978 C.ar    1  UNL1        0.1090
     19 N         144.1760  138.7201  160.3185 N.ar    1  UNL1       -0.2346
     20 C         142.9773  137.9208  159.9008 C.ar    1  UNL1        0.1346
     21 S         141.9815  137.9585  161.0220 S.2     1  UNL1       -0.0614
     22 N         142.6290  141.1376  166.7632 N.pl3   1  UNL1       -0.3131
     23 H         142.5149  140.9702  167.7266 H       1  UNL1        0.1485
     24 C         143.4925  142.2717  166.2961 C.3     1  UNL1        0.1348
     25 C         142.9514  143.2736  165.3197 C.ar    1  UNL1        0.0788
     26 C         143.8923  144.1104  164.5047 C.ar    1  UNL1        0.0165
     27 C         143.3512  145.1124  163.5283 C.ar    1  UNL1        0.0029
     28 C         141.8691  145.2775  163.3670 C.ar    1  UNL1        0.0207
     29 C         140.9281  144.4407  164.1821 C.ar    1  UNL1        0.0985
     30 N         141.4692  143.4388  165.1584 N.ar    1  UNL1       -0.2464
@<TRIPOS>BOND
     1    11    12   ar
     2    12    13   ar
     3    13    14   ar
     4    14     1    1
     5     1     2   ar
     6     2     3   ar
     7     3     4   ar
     8     4     5   ar
     9     5     6   ar
    10     6     7   ar
    11     7    17    1
    12    17    18   ar
    13    18    19   ar
    14    19    20   ar
    15    20    21   ar
    16     7     8   ar
    17     8     9   ar
    18     9    22    1
    19    22    24    1
    20    24    25    1
    21    25    26   ar
    22    26    27   ar
    23    27    28   ar
    24    28    29   ar
    25    29    30   ar
    26     9    10   ar
    27    14    15   ar
    28    15    16   ar
    29    16    11   ar
    30    10     1   ar
    31    10     5   ar
    32    21    17   ar
    33    30    25   ar
    34    22    23    1
@<TRIPOS>MOLECULE
*****
 30 34 0 0 0
SMALL
GASTEIGER

@<TRIPOS>ATOM
      1 C         138.9618  140.3152  164.5660 C.ar    1  UNL1        0.0041
      2 C         138.4644  139.3312  165.5829 C.ar    1  UNL1        0.0002
      3 C         138.5774  137.8588  165.3196 C.ar    1  UNL1        0.0015
      4 C         139.1877  137.3706  164.0393 C.ar    1  UNL1        0.0192
      5 C         139.6850  138.3547  163.0224 C.ar    1  UNL1        0.0856
      6 N         140.2953  137.8664  161.7421 N.ar    1  UNL1       -0.2260
      7 C         140.7927  138.8505  160.7252 C.ar    1  UNL1        0.1712
      8 N         140.6797  140.3229  160.9885 N.ar    1  UNL1       -0.2115
      9 C         140.0694  140.8112  162.2688 C.ar    1  UNL1        0.1318
     10 C         139.5721  139.8270  163.2857 C.ar    1  UNL1        0.0491
     11 C         138.6230  144.7325  165.3561 C.ar    1  UNL1        0.0000
     12 C         137.5772  144.0345  164.5381 C.ar    1  UNL1        0.0000
     13 C         137.6901  142.5621  164.2747 C.ar    1  UNL1        0.0000
     14 C         138.8488  141.7877  164.8294 C.ar    1  UNL1        0.0001
     15 C         139.8947  142.4856  165.6474 C.ar    1  UNL1        0.0000
     16 C         139.7818  143.9580  165.9107 C.ar    1  UNL1        0.0000
     17 C         141.4030  138.3623  159.4449 C.ar    1  UNL1        0.0858
     18 C         142.7746  137.7751  159.2896 C.ar    1  UNL1        0.1090
     19 N         142.9681  137.4254  157.8438 N.ar    1  UNL1       -0.2346
     20 C         141.7162  137.7964  157.1055 C.ar    1  UNL1        0.1346
     21 S         140.7489  138.3754  158.0951 S.2     1  UNL1       -0.0614
     22 N         139.9565  142.2835  162.5322 N.pl3   1  UNL1       -0.3131
     23 H         139.1448  142.6472  162.9542 H       1  UNL1        0.1485
     24 C         141.0803  143.2018  162.1525 C.3     1  UNL1        0.1348
     25 C         142.2118  143.4374  163.1085 C.ar    1  UNL1        0.0788
     26 C         142.6054  144.8379  163.4741 C.ar    1  UNL1        0.0165
     27 C         143.7370  145.0737  164.4302 C.ar    1  UNL1        0.0029
     28 C         144.4749  143.9089  165.0206 C.ar    1  UNL1        0.0207
     29 C         144.0813  142.5083  164.6550 C.ar    1  UNL1        0.0985
     30 N         142.9498  142.2726  163.6990 N.ar    1  UNL1       -0.2464
@<TRIPOS>BOND
     1    11    12   ar
     2    12    13   ar
     3    13    14   ar
     4    14     1    1
     5     1     2   ar
     6     2     3   ar
     7     3     4   ar
     8     4     5   ar
     9     5     6   ar
    10     6     7   ar
    11     7    17    1
    12    17    18   ar
    13    18    19   ar
    14    19    20   ar
    15    20    21   ar
    16     7     8   ar
    17     8     9   ar
    18     9    22    1
    19    22    24    1
    20    24    25    1
    21    25    26   ar
    22    26    27   ar
    23    27    28   ar
    24    28    29   ar
    25    29    30   ar
    26     9    10   ar
    27    14    15   ar
    28    15    16   ar
    29    16    11   ar
    30    10     1   ar
    31    10     5   ar
    32    21    17   ar
    33    30    25   ar
    34    22    23    1
@<TRIPOS>MOLECULE
*****
 30 34 0 0 0
SMALL
GASTEIGER

@<TRIPOS>ATOM
      1 C         139.8446  140.6966  167.3830 C.ar    1  UNL1        0.0041
      2 C         139.0205  139.5644  167.9205 C.ar    1  UNL1        0.0002
      3 C         138.0400  138.8614  167.0293 C.ar    1  UNL1        0.0015
      4 C         137.8836  139.2906  165.6005 C.ar    1  UNL1        0.0192
      5 C         138.7077  140.4227  165.0630 C.ar    1  UNL1        0.0856
      6 N         138.5514  140.8519  163.6342 N.ar    1  UNL1       -0.2260
      7 C         139.3755  141.9841  163.0967 C.ar    1  UNL1        0.1712
      8 N         140.3561  142.6871  163.9880 N.ar    1  UNL1       -0.2115
      9 C         140.5124  142.2580  165.4167 C.ar    1  UNL1        0.1318
     10 C         139.6882  141.1257  165.9542 C.ar    1  UNL1        0.0491
     11 C         142.7863  142.8057  170.0567 C.ar    1  UNL1        0.0000
     12 C         141.4197  143.3852  169.8408 C.ar    1  UNL1        0.0000
     13 C         140.4392  142.6822  168.9495 C.ar    1  UNL1        0.0000
     14 C         140.8252  141.3997  168.2742 C.ar    1  UNL1        0.0001
     15 C         142.1918  140.8201  168.4902 C.ar    1  UNL1        0.0000
     16 C         143.1723  141.5231  169.3814 C.ar    1  UNL1        0.0000
     17 C         139.2191  142.4132  161.6679 C.ar    1  UNL1        0.0858
     18 C         139.6964  143.7076  161.0788 C.ar    1  UNL1        0.1090
     19 N         139.3302  143.7177  159.6242 N.ar    1  UNL1       -0.2346
     20 C         138.6267  142.4296  159.3143 C.ar    1  UNL1        0.1346
     21 S         138.5581  141.6235  160.5774 S.2     1  UNL1       -0.0614
     22 N         141.4929  142.9610  166.3080 N.pl3   1  UNL1       -0.3131
     23 H         141.2207  143.2481  167.2095 H       1  UNL1        0.1485
     24 C         142.8883  143.2266  165.8257 C.3     1  UNL1        0.1348
     25 C         143.6852  142.1250  165.1921 C.ar    1  UNL1        0.0788
     26 C         143.3258  140.6927  165.4548 C.ar    1  UNL1        0.0165
     27 C         144.1227  139.5910  164.8212 C.ar    1  UNL1        0.0029
     28 C         145.2791  139.9219  163.9249 C.ar    1  UNL1        0.0207
     29 C         145.6385  141.3544  163.6622 C.ar    1  UNL1        0.0985
     30 N         144.8416  142.4559  164.2958 N.ar    1  UNL1       -0.2464
@<TRIPOS>BOND
     1    11    12   ar
     2    12    13   ar
     3    13    14   ar
     4    14     1    1
     5     1     2   ar
     6     2     3   ar
     7     3     4   ar
     8     4     5   ar
     9     5     6   ar
    10     6     7   ar
    11     7    17    1
    12    17    18   ar
    13    18    19   ar
    14    19    20   ar
    15    20    21   ar
    16     7     8   ar
    17     8     9   ar
    18     9    22    1
    19    22    24    1
    20    24    25    1
    21    25    26   ar
    22    26    27   ar
    23    27    28   ar
    24    28    29   ar
    25    29    30   ar
    26     9    10   ar
    27    14    15   ar
    28    15    16   ar
    29    16    11   ar
    30    10     1   ar
    31    10     5   ar
    32    21    17   ar
    33    30    25   ar
    34    22    23    1
@<TRIPOS>MOLECULE
*****
 30 34 0 0 0
SMALL
GASTEIGER

@<TRIPOS>ATOM
      1 C         142.9819  141.7418  166.3109 C.ar    1  UNL1        0.0041
      2 C         143.7842  142.9817  166.5733 C.ar    1  UNL1        0.0002
      3 C         144.6033  143.5915  165.4746 C.ar    1  UNL1        0.0015
      4 C         144.6201  142.9614  164.1135 C.ar    1  UNL1        0.0192
      5 C         143.8178  141.7215  163.8511 C.ar    1  UNL1        0.0856
      6 N         143.8346  141.0914  162.4899 N.ar    1  UNL1       -0.2260
      7 C         143.0322  139.8515  162.2275 C.ar    1  UNL1        0.1712
      8 N         142.2131  139.2417  163.3262 N.ar    1  UNL1       -0.2115
      9 C         142.1963  139.8718  164.6873 C.ar    1  UNL1        0.1318
     10 C         142.9987  141.1117  164.9497 C.ar    1  UNL1        0.0491
     11 C         140.5245  139.9122  169.6070 C.ar    1  UNL1        0.0000
     12 C         139.9562  141.0250  168.7770 C.ar    1  UNL1        0.0000
     13 C         140.7753  141.6348  167.6783 C.ar    1  UNL1        0.0000
     14 C         142.1627  141.1319  167.4096 C.ar    1  UNL1        0.0001
     15 C         142.7310  140.0192  168.2396 C.ar    1  UNL1        0.0000
     16 C         141.9119  139.4094  169.3383 C.ar    1  UNL1        0.0000
     17 C         143.0490  139.2214  160.8663 C.ar    1  UNL1        0.0858
     18 C         143.6743  139.8031  159.6331 C.ar    1  UNL1        0.1090
     19 N         143.4552  138.8402  158.5040 N.ar    1  UNL1       -0.2346
     20 C         142.6945  137.6634  159.0394 C.ar    1  UNL1        0.1346
     21 S         142.4436  137.8990  160.4994 S.2     1  UNL1       -0.0614
     22 N         141.3772  139.2620  165.7860 N.pl3   1  UNL1       -0.3131
     23 H         141.7776  139.1107  166.6726 H       1  UNL1        0.1485
     24 C         139.9480  138.8826  165.5339 C.3     1  UNL1        0.1348
     25 C         139.0926  139.7325  164.6418 C.ar    1  UNL1        0.0788
     26 C         138.6610  141.0961  165.0937 C.ar    1  UNL1        0.0165
     27 C         137.8056  141.9461  164.2016 C.ar    1  UNL1        0.0029
     28 C         137.3818  141.4324  162.8576 C.ar    1  UNL1        0.0207
     29 C         137.8133  140.0687  162.4057 C.ar    1  UNL1        0.0985
     30 N         138.6687  139.2188  163.2978 N.ar    1  UNL1       -0.2464
@<TRIPOS>BOND
     1    11    12   ar
     2    12    13   ar
     3    13    14   ar
     4    14     1    1
     5     1     2   ar
     6     2     3   ar
     7     3     4   ar
     8     4     5   ar
     9     5     6   ar
    10     6     7   ar
    11     7    17    1
    12    17    18   ar
    13    18    19   ar
    14    19    20   ar
    15    20    21   ar
    16     7     8   ar
    17     8     9   ar
    18     9    22    1
    19    22    24    1
    20    24    25    1
    21    25    26   ar
    22    26    27   ar
    23    27    28   ar
    24    28    29   ar
    25    29    30   ar
    26     9    10   ar
    27    14    15   ar
    28    15    16   ar
    29    16    11   ar
    30    10     1   ar
    31    10     5   ar
    32    21    17   ar
    33    30    25   ar
    34    22    23    1
@<TRIPOS>MOLECULE
*****
 30 34 0 0 0
SMALL
GASTEIGER

@<TRIPOS>ATOM
      1 C         139.7895  139.2352  164.9670 C.ar    1  UNL1        0.0041
      2 C         139.2294  137.8883  164.6176 C.ar    1  UNL1        0.0002
      3 C         138.7037  137.6298  163.2368 C.ar    1  UNL1        0.0015
      4 C         138.7381  138.7183  162.2052 C.ar    1  UNL1        0.0192
      5 C         139.2982  140.0652  162.5546 C.ar    1  UNL1        0.0856
      6 N         139.3326  141.1537  161.5230 N.ar    1  UNL1       -0.2260
      7 C         139.8926  142.5006  161.8724 C.ar    1  UNL1        0.1712
      8 N         140.4184  142.7591  163.2533 N.ar    1  UNL1       -0.2115
      9 C         140.3840  141.6706  164.2848 C.ar    1  UNL1        0.1318
     10 C         139.8239  140.3236  163.9354 C.ar    1  UNL1        0.0491
     11 C         141.3666  140.0107  169.1096 C.ar    1  UNL1        0.0000
     12 C         142.2864  139.5004  168.0403 C.ar    1  UNL1        0.0000
     13 C         141.7607  139.2419  166.6594 C.ar    1  UNL1        0.0000
     14 C         140.3152  139.4937  166.3479 C.ar    1  UNL1        0.0001
     15 C         139.3954  140.0040  167.4172 C.ar    1  UNL1        0.0000
     16 C         139.9210  140.2625  168.7981 C.ar    1  UNL1        0.0000
     17 C         139.9270  143.5891  160.8408 C.ar    1  UNL1        0.0858
     18 C         139.9544  145.0635  161.1155 C.ar    1  UNL1        0.1090
     19 N         139.9843  145.7799  159.7979 N.ar    1  UNL1       -0.2346
     20 C         139.9756  144.7482  158.7090 C.ar    1  UNL1        0.1346
     21 S         139.9401  143.3943  159.3536 S.2     1  UNL1       -0.0614
     22 N         140.9097  141.9291  165.6657 N.pl3   1  UNL1       -0.3131
     23 H         140.3792  141.6648  166.4518 H       1  UNL1        0.1485
     24 C         142.2437  142.5902  165.8488 C.3     1  UNL1        0.1348
     25 C         143.3569  142.3135  164.8823 C.ar    1  UNL1        0.0788
     26 C         144.0821  141.0013  164.9294 C.ar    1  UNL1        0.0165
     27 C         145.1954  140.7245  163.9629 C.ar    1  UNL1        0.0029
     28 C         145.5833  141.7599  162.9492 C.ar    1  UNL1        0.0207
     29 C         144.8579  143.0721  162.9021 C.ar    1  UNL1        0.0985
     30 N         143.7448  143.3488  163.8686 N.ar    1  UNL1       -0.2464
@<TRIPOS>BOND
     1    11    12   ar
     2    12    13   ar
     3    13    14   ar
     4    14     1    1
     5     1     2   ar
     6     2     3   ar
     7     3     4   ar
     8     4     5   ar
     9     5     6   ar
    10     6     7   ar
    11     7    17    1
    12    17    18   ar
    13    18    19   ar
    14    19    20   ar
    15    20    21   ar
    16     7     8   ar
    17     8     9   ar
    18     9    22    1
    19    22    24    1
    20    24    25    1
    21    25    26   ar
    22    26    27   ar
    23    27    28   ar
    24    28    29   ar
    25    29    30   ar
    26     9    10   ar
    27    14    15   ar
    28    15    16   ar
    29    16    11   ar
    30    10     1   ar
    31    10     5   ar
    32    21    17   ar
    33    30    25   ar
    34    22    23    1
@<TRIPOS>MOLECULE
*****
 30 34 0 0 0
SMALL
GASTEIGER

@<TRIPOS>ATOM
      1 C         139.0134  141.5945  163.7201 C.ar    1  UNL1        0.0041
      2 C         138.1047  142.3000  164.6827 C.ar    1  UNL1        0.0002
      3 C         137.5957  143.6744  164.3634 C.ar    1  UNL1        0.0015
      4 C         137.9953  144.3433  163.0817 C.ar    1  UNL1        0.0192
      5 C         138.9040  143.6378  162.1192 C.ar    1  UNL1        0.0856
      6 N         139.3037  144.3067  160.8374 N.ar    1  UNL1       -0.2260
      7 C         140.2123  143.6012  159.8749 C.ar    1  UNL1        0.1712
      8 N         140.7214  142.2267  160.1940 N.ar    1  UNL1       -0.2115
      9 C         140.3217  141.5578  161.4758 C.ar    1  UNL1        0.1318
     10 C         139.4130  142.2634  162.4384 C.ar    1  UNL1        0.0491
     11 C         140.5406  137.4713  164.6777 C.ar    1  UNL1        0.0000
     12 C         139.3126  137.6387  163.8326 C.ar    1  UNL1        0.0000
     13 C         138.8036  139.0132  163.5134 C.ar    1  UNL1        0.0000
     14 C         139.5224  140.2201  164.0393 C.ar    1  UNL1        0.0001
     15 C         140.7503  140.0526  164.8844 C.ar    1  UNL1        0.0000
     16 C         141.2594  138.6783  165.2036 C.ar    1  UNL1        0.0000
     17 C         140.6120  144.2700  158.5931 C.ar    1  UNL1        0.0858
     18 C         140.1254  143.9086  157.2209 C.ar    1  UNL1        0.1090
     19 N         140.7811  144.8330  156.2383 N.ar    1  UNL1       -0.2346
     20 C         141.6729  145.7657  157.0031 C.ar    1  UNL1        0.1346
     21 S         141.5683  145.4178  158.4584 S.2     1  UNL1       -0.0614
     22 N         140.8307  140.1835  161.7950 N.pl3   1  UNL1       -0.3131
     23 H         140.2430  139.5324  162.2421 H       1  UNL1        0.1485
     24 C         142.2353  139.8010  161.4330 C.3     1  UNL1        0.1348
     25 C         143.3892  140.3609  162.2109 C.ar    1  UNL1        0.0788
     26 C         144.0456  139.5355  163.2775 C.ar    1  UNL1        0.0165
     27 C         145.1995  140.0953  164.0554 C.ar    1  UNL1        0.0029
     28 C         145.6970  141.4806  163.7666 C.ar    1  UNL1        0.0207
     29 C         145.0406  142.3061  162.6999 C.ar    1  UNL1        0.0985
     30 N         143.8867  141.7462  161.9220 N.ar    1  UNL1       -0.2464
@<TRIPOS>BOND
     1    11    12   ar
     2    12    13   ar
     3    13    14   ar
     4    14     1    1
     5     1     2   ar
     6     2     3   ar
     7     3     4   ar
     8     4     5   ar
     9     5     6   ar
    10     6     7   ar
    11     7    17    1
    12    17    18   ar
    13    18    19   ar
    14    19    20   ar
    15    20    21   ar
    16     7     8   ar
    17     8     9   ar
    18     9    22    1
    19    22    24    1
    20    24    25    1
    21    25    26   ar
    22    26    27   ar
    23    27    28   ar
    24    28    29   ar
    25    29    30   ar
    26     9    10   ar
    27    14    15   ar
    28    15    16   ar
    29    16    11   ar
    30    10     1   ar
    31    10     5   ar
    32    21    17   ar
    33    30    25   ar
    34    22    23    1
@<TRIPOS>MOLECULE
*****
 30 34 0 0 0
SMALL
GASTEIGER

@<TRIPOS>ATOM
      1 C         139.2228  142.0439  163.3835 C.ar    1  UNL1        0.0041
      2 C         138.9953  143.3794  162.7398 C.ar    1  UNL1        0.0002
      3 C         139.1172  144.6342  163.5526 C.ar    1  UNL1        0.0015
      4 C         139.4667  144.5534  165.0090 C.ar    1  UNL1        0.0192
      5 C         139.6942  143.2178  165.6527 C.ar    1  UNL1        0.0856
      6 N         140.0437  143.1370  167.1092 N.ar    1  UNL1       -0.2260
      7 C         140.2712  141.8014  167.7529 C.ar    1  UNL1        0.1712
      8 N         140.1493  140.5465  166.9401 N.ar    1  UNL1       -0.2115
      9 C         139.7998  140.6274  165.4837 C.ar    1  UNL1        0.1318
     10 C         139.5723  141.9630  164.8400 C.ar    1  UNL1        0.0491
     11 C         138.8570  138.2793  160.9452 C.ar    1  UNL1        0.0000
     12 C         140.1370  139.0613  160.9300 C.ar    1  UNL1        0.0000
     13 C         140.2589  140.3162  161.7428 C.ar    1  UNL1        0.0000
     14 C         139.1009  140.7890  162.5707 C.ar    1  UNL1        0.0001
     15 C         137.8210  140.0070  162.5859 C.ar    1  UNL1        0.0000
     16 C         137.6990  138.7522  161.7732 C.ar    1  UNL1        0.0000
     17 C         140.6207  141.7206  169.2094 C.ar    1  UNL1        0.0858
     18 C         139.9251  142.4437  170.3245 C.ar    1  UNL1        0.1090
     19 N         140.6017  142.0724  171.6108 N.ar    1  UNL1       -0.2346
     20 C         141.7154  141.1200  171.2907 C.ar    1  UNL1        0.1346
     21 S         141.7271  140.9025  169.8066 S.2     1  UNL1       -0.0614
     22 N         139.6779  139.3726  164.6709 N.pl3   1  UNL1       -0.3131
     23 H         138.9452  139.2768  164.0203 H       1  UNL1        0.1485
     24 C         140.6723  138.2638  164.8493 C.3     1  UNL1        0.1348
     25 C         142.1417  138.5538  164.7675 C.ar    1  UNL1        0.0788
     26 C         142.7492  138.9875  163.4664 C.ar    1  UNL1        0.0165
     27 C         144.2187  139.2776  163.3845 C.ar    1  UNL1        0.0029
     28 C         145.0806  139.1338  164.6037 C.ar    1  UNL1        0.0207
     29 C         144.4730  138.7000  165.9048 C.ar    1  UNL1        0.0985
     30 N         143.0036  138.4100  165.9867 N.ar    1  UNL1       -0.2464
@<TRIPOS>BOND
     1    11    12   ar
     2    12    13   ar
     3    13    14   ar
     4    14     1    1
     5     1     2   ar
     6     2     3   ar
     7     3     4   ar
     8     4     5   ar
     9     5     6   ar
    10     6     7   ar
    11     7    17    1
    12    17    18   ar
    13    18    19   ar
    14    19    20   ar
    15    20    21   ar
    16     7     8   ar
    17     8     9   ar
    18     9    22    1
    19    22    24    1
    20    24    25    1
    21    25    26   ar
    22    26    27   ar
    23    27    28   ar
    24    28    29   ar
    25    29    30   ar
    26     9    10   ar
    27    14    15   ar
    28    15    16   ar
    29    16    11   ar
    30    10     1   ar
    31    10     5   ar
    32    21    17   ar
    33    30    25   ar
    34    22    23    1
@<TRIPOS>MOLECULE
*****
 30 34 0 0 0
SMALL
GASTEIGER

@<TRIPOS>ATOM
      1 C         142.7535  142.7848  164.0021 C.ar    1  UNL1        0.0041
      2 C         144.0284  143.1010  164.7263 C.ar    1  UNL1        0.0002
      3 C         145.3203  142.4884  164.2728 C.ar    1  UNL1        0.0015
      4 C         145.3373  141.5597  163.0950 C.ar    1  UNL1        0.0192
      5 C         144.0624  141.2435  162.3708 C.ar    1  UNL1        0.0856
      6 N         144.0794  140.3148  161.1930 N.ar    1  UNL1       -0.2260
      7 C         142.8045  139.9986  160.4687 C.ar    1  UNL1        0.1712
      8 N         141.5125  140.6112  160.9222 N.ar    1  UNL1       -0.2115
      9 C         141.4955  141.5399  162.1000 C.ar    1  UNL1        0.1318
     10 C         142.7705  141.8561  162.8243 C.ar    1  UNL1        0.0491
     11 C         138.8776  144.6225  165.3626 C.ar    1  UNL1        0.0000
     12 C         139.4647  143.4661  166.1163 C.ar    1  UNL1        0.0000
     13 C         140.7567  142.8535  165.6628 C.ar    1  UNL1        0.0000
     14 C         141.4615  143.3974  164.4556 C.ar    1  UNL1        0.0001
     15 C         140.8745  144.5538  163.7019 C.ar    1  UNL1        0.0000
     16 C         139.5826  145.1663  164.1553 C.ar    1  UNL1        0.0000
     17 C         142.8215  139.0699  159.2909 C.ar    1  UNL1        0.0858
     18 C         142.9059  137.5733  159.3493 C.ar    1  UNL1        0.1090
     19 N         142.8936  137.0532  157.9424 N.ar    1  UNL1       -0.2346
     20 C         142.8016  138.2282  157.0146 C.ar    1  UNL1        0.1346
     21 S         142.7570  139.4746  157.8480 S.2     1  UNL1       -0.0614
     22 N         140.2036  142.1525  162.5536 N.pl3   1  UNL1       -0.3131
     23 H         140.1749  143.0996  162.8206 H       1  UNL1        0.1485
     24 C         138.9553  141.3219  162.6002 C.3     1  UNL1        0.1348
     25 C         138.8527  140.1757  163.5623 C.ar    1  UNL1        0.0788
     26 C         138.2383  140.3844  164.9147 C.ar    1  UNL1        0.0165
     27 C         138.1356  139.2382  165.8768 C.ar    1  UNL1        0.0029
     28 C         138.6474  137.8832  165.4865 C.ar    1  UNL1        0.0207
     29 C         139.2618  137.6746  164.1341 C.ar    1  UNL1        0.0985
     30 N         139.3644  138.8208  163.1720 N.ar    1  UNL1       -0.2464
@<TRIPOS>BOND
     1    11    12   ar
     2    12    13   ar
     3    13    14   ar
     4    14     1    1
     5     1     2   ar
     6     2     3   ar
     7     3     4   ar
     8     4     5   ar
     9     5     6   ar
    10     6     7   ar
    11     7    17    1
    12    17    18   ar
    13    18    19   ar
    14    19    20   ar
    15    20    21   ar
    16     7     8   ar
    17     8     9   ar
    18     9    22    1
    19    22    24    1
    20    24    25    1
    21    25    26   ar
    22    26    27   ar
    23    27    28   ar
    24    28    29   ar
    25    29    30   ar
    26     9    10   ar
    27    14    15   ar
    28    15    16   ar
    29    16    11   ar
    30    10     1   ar
    31    10     5   ar
    32    21    17   ar
    33    30    25   ar
    34    22    23    1
@<TRIPOS>MOLECULE
*****
 30 34 0 0 0
SMALL
GASTEIGER

@<TRIPOS>ATOM
      1 C         141.5916  139.1470  163.4235 C.ar    1  UNL1        0.0041
      2 C         142.9046  138.8329  162.7698 C.ar    1  UNL1        0.0002
      3 C         144.1670  138.8428  163.5799 C.ar    1  UNL1        0.0015
      4 C         144.1164  139.1668  165.0436 C.ar    1  UNL1        0.0192
      5 C         142.8034  139.4810  165.6972 C.ar    1  UNL1        0.0856
      6 N         142.7528  139.8050  167.1609 N.ar    1  UNL1       -0.2260
      7 C         141.4398  140.1192  167.8146 C.ar    1  UNL1        0.1712
      8 N         140.1773  140.1093  167.0045 N.ar    1  UNL1       -0.2115
      9 C         140.2279  139.7852  165.5408 C.ar    1  UNL1        0.1318
     10 C         141.5410  139.4711  164.8872 C.ar    1  UNL1        0.0491
     11 C         137.8043  139.1173  160.9933 C.ar    1  UNL1        0.0000
     12 C         138.6938  140.3250  160.9811 C.ar    1  UNL1        0.0000
     13 C         139.9563  140.3349  161.7911 C.ar    1  UNL1        0.0000
     14 C         140.3292  139.1371  162.6134 C.ar    1  UNL1        0.0001
     15 C         139.4396  137.9294  162.6257 C.ar    1  UNL1        0.0000
     16 C         138.1772  137.9195  161.8157 C.ar    1  UNL1        0.0000
     17 C         141.3892  140.4432  169.2783 C.ar    1  UNL1        0.0858
     18 C         140.2173  140.2266  170.1893 C.ar    1  UNL1        0.1090
     19 N         140.6054  140.6903  171.5620 N.ar    1  UNL1       -0.2346
     20 C         142.0171  141.1934  171.4995 C.ar    1  UNL1        0.1346
     21 S         142.5015  141.0407  170.0880 S.2     1  UNL1       -0.0614
     22 N         138.9656  139.7753  164.7308 N.pl3   1  UNL1       -0.3131
     23 H         138.7885  139.0368  164.1043 H       1  UNL1        0.1485
     24 C         137.9729  140.8907  164.8752 C.3     1  UNL1        0.1348
     25 C         138.3301  142.2757  164.4235 C.ar    1  UNL1        0.0788
     26 C         137.6041  142.8983  163.2680 C.ar    1  UNL1        0.0165
     27 C         137.9613  144.2834  162.8163 C.ar    1  UNL1        0.0029
     28 C         139.0445  145.0458  163.5201 C.ar    1  UNL1        0.0207
     29 C         139.7705  144.4231  164.6757 C.ar    1  UNL1        0.0985
     30 N         139.4133  143.0381  165.1273 N.ar    1  UNL1       -0.2464
@<TRIPOS>BOND
     1    11    12   ar
     2    12    13   ar
     3    13    14   ar
     4    14     1    1
     5     1     2   ar
     6     2     3   ar
     7     3     4   ar
     8     4     5   ar
     9     5     6   ar
    10     6     7   ar
    11     7    17    1
    12    17    18   ar
    13    18    19   ar
    14    19    20   ar
    15    20    21   ar
    16     7     8   ar
    17     8     9   ar
    18     9    22    1
    19    22    24    1
    20    24    25    1
    21    25    26   ar
    22    26    27   ar
    23    27    28   ar
    24    28    29   ar
    25    29    30   ar
    26     9    10   ar
    27    14    15   ar
    28    15    16   ar
    29    16    11   ar
    30    10     1   ar
    31    10     5   ar
    32    21    17   ar
    33    30    25   ar
    34    22    23    1
