@<TRIPOS>MOLECULE
*****
 33 36 0 0 0
SMALL
GASTEIGER

@<TRIPOS>ATOM
      1 C         140.0258  141.0488  165.1305 C.3     1  UNL1        0.1121
      2 C         139.9253  141.0703  166.6270 C.ar    1  UNL1       -0.0068
      3 C         139.3841  140.0759  167.6110 C.ar    1  UNL1       -0.0029
      4 C         139.4184  140.3792  169.0795 C.ar    1  UNL1       -0.0003
      5 C         139.9938  141.6769  169.5642 C.ar    1  UNL1       -0.0003
      6 C         140.5350  142.6713  168.5802 C.ar    1  UNL1       -0.0045
      7 C         140.5007  142.3680  167.1116 C.ar    1  UNL1       -0.0228
      8 C         140.9569  143.1485  165.9146 C.3     1  UNL1        0.0477
      9 C         140.6634  142.3332  164.6902 C.3     1  UNL1        0.0983
     10 C         138.4623  140.1763  163.2478 C.2     1  UNL1        0.2241
     11 O         137.8125  141.5255  163.1621 O.2     1  UNL1       -0.2750
     12 N         139.5690  139.9379  164.2321 N.am    1  UNL1       -0.3007
     13 H         139.9954  139.0523  164.2883 H       1  UNL1        0.1497
     14 C         138.0054  139.0654  162.3494 C.3     1  UNL1        0.1023
     15 C         138.7270  137.7504  162.3564 C.3     1  UNL1        0.0818
     16 C         141.0737  137.0862  163.2522 C.3     1  UNL1        0.0897
     17 N         140.2174  137.7119  162.1913 N.3     1  UNL1       -0.2699
     18 C         140.8516  138.2992  160.9653 C.3     1  UNL1        0.0897
     19 N         140.9560  142.7322  163.2742 N.am    1  UNL1       -0.2990
     20 C         140.2651  143.9193  162.6714 C.2     1  UNL1        0.2636
     21 O         139.2815  144.7075  163.4847 O.2     1  UNL1       -0.2685
     22 H         141.6016  142.2149  162.7404 H       1  UNL1        0.1498
     23 C         140.5578  144.3183  161.2554 C.2     1  UNL1        0.1341
     24 C         141.7112  143.8390  160.4247 C.2     1  UNL1        0.0250
     25 C         141.6147  144.4912  159.0774 C.2     1  UNL1        0.0179
     26 C         142.4746  144.3955  157.8521 C.2     1  UNL1        0.0329
     27 C         142.1216  145.1823  156.6248 C.2     1  UNL1        0.1637
     28 F         142.9815  145.0867  155.3995 F       1  UNL1       -0.2021
     29 C         140.9086  146.0647  156.6227 C.2     1  UNL1        0.1508
     30 F         140.5555  146.8514  155.3953 F       1  UNL1       -0.2061
     31 C         140.0486  146.1603  157.8480 C.3     1  UNL1        0.1045
     32 C         140.4017  145.3736  159.0753 C.2     1  UNL1        0.0660
     33 N         139.7484  145.2668  160.4214 N.2     1  UNL1       -0.2447
@<TRIPOS>BOND
     1    16    17    1
     2    17    18    1
     3    17    15    1
     4    15    14    1
     5    14    10    1
     6    10    11    2
     7    10    12   am
     8     1    12    1
     9     1     2    1
    10     2     3   ar
    11     3     4   ar
    12     4     5   ar
    13     5     6   ar
    14     6     7   ar
    15     7     8    1
    16     8     9    1
    17     9    19    1
    18    19    20   am
    19    20    21    2
    20    20    23    1
    21    23    24    2
    22    24    25    1
    23    25    26    2
    24    26    27    1
    25    27    28    1
    26    27    29    2
    27    29    30    1
    28    29    31    1
    29    31    32    1
    30    32    33    2
    31     9     1    1
    32    33    23    1
    33     7     2   ar
    34    32    25    1
    35    12    13    1
    36    19    22    1
@<TRIPOS>MOLECULE
*****
 33 36 0 0 0
SMALL
GASTEIGER

@<TRIPOS>ATOM
      1 C         142.1724  143.6650  160.5817 C.3     1  UNL1        0.1121
      2 C         141.9513  144.2285  159.2093 C.ar    1  UNL1       -0.0068
      3 C         142.6628  144.0082  157.9073 C.ar    1  UNL1       -0.0029
      4 C         142.2061  144.7264  156.6722 C.ar    1  UNL1       -0.0003
      5 C         141.0380  145.6650  156.7391 C.ar    1  UNL1       -0.0003
      6 C         140.3265  145.8853  158.0411 C.ar    1  UNL1       -0.0045
      7 C         140.7832  145.1670  159.2762 C.ar    1  UNL1       -0.0228
      8 C         140.2823  145.1836  160.6900 C.3     1  UNL1        0.0477
      9 C         141.1409  144.2553  161.4969 C.3     1  UNL1        0.0983
     10 C         144.3187  143.0901  161.9283 C.2     1  UNL1        0.2241
     11 O         144.3338  144.4781  162.4968 O.2     1  UNL1       -0.2750
     12 N         143.2380  142.6835  160.9707 N.am    1  UNL1       -0.3007
     13 H         143.2280  141.7725  160.5976 H       1  UNL1        0.1497
     14 C         145.3843  142.1086  162.3173 C.3     1  UNL1        0.1023
     15 C         145.5957  141.7647  163.7619 C.3     1  UNL1        0.0818
     16 C         143.5540  140.4818  164.7295 C.3     1  UNL1        0.0897
     17 N         144.4247  141.7029  164.6973 N.3     1  UNL1       -0.2699
     18 C         144.1242  142.8622  165.6004 C.3     1  UNL1        0.0897
     19 N         140.9938  143.9678  162.9617 N.am    1  UNL1       -0.2990
     20 C         140.5103  142.6229  163.4172 C.2     1  UNL1        0.2636
     21 O         140.1740  141.5654  162.4078 O.2     1  UNL1       -0.2685
     22 H         141.2145  144.6618  163.6242 H       1  UNL1        0.1498
     23 C         140.3632  142.3354  164.8820 C.2     1  UNL1        0.1341
     24 C         140.5857  143.3117  165.9989 C.2     1  UNL1        0.0250
     25 C         140.3278  142.6008  167.2943 C.2     1  UNL1        0.0179
     26 C         140.3913  143.0597  168.7209 C.2     1  UNL1        0.0329
     27 C         140.0730  142.1028  169.8314 C.2     1  UNL1        0.1637
     28 F         140.1365  142.5617  171.2581 F       1  UNL1       -0.2021
     29 C         139.6911  140.6871  169.5151 C.2     1  UNL1        0.1508
     30 F         139.3728  139.7303  170.6257 F       1  UNL1       -0.2061
     31 C         139.6276  140.2283  168.0885 C.3     1  UNL1        0.1045
     32 C         139.9459  141.1851  166.9781 C.2     1  UNL1        0.0660
     33 N         139.9678  141.0210  165.4872 N.2     1  UNL1       -0.2447
@<TRIPOS>BOND
     1    16    17    1
     2    17    18    1
     3    17    15    1
     4    15    14    1
     5    14    10    1
     6    10    11    2
     7    10    12   am
     8     1    12    1
     9     1     2    1
    10     2     3   ar
    11     3     4   ar
    12     4     5   ar
    13     5     6   ar
    14     6     7   ar
    15     7     8    1
    16     8     9    1
    17     9    19    1
    18    19    20   am
    19    20    21    2
    20    20    23    1
    21    23    24    2
    22    24    25    1
    23    25    26    2
    24    26    27    1
    25    27    28    1
    26    27    29    2
    27    29    30    1
    28    29    31    1
    29    31    32    1
    30    32    33    2
    31     9     1    1
    32    33    23    1
    33     7     2   ar
    34    32    25    1
    35    12    13    1
    36    19    22    1
@<TRIPOS>MOLECULE
*****
 33 36 0 0 0
SMALL
GASTEIGER

@<TRIPOS>ATOM
      1 C         142.0600  142.2601  165.7795 C.3     1  UNL1        0.1121
      2 C         142.0023  142.3525  167.2756 C.ar    1  UNL1       -0.0068
      3 C         142.9754  141.9513  168.3442 C.ar    1  UNL1       -0.0029
      4 C         142.6359  142.1712  169.7886 C.ar    1  UNL1       -0.0003
      5 C         141.3233  142.7923  170.1644 C.ar    1  UNL1       -0.0003
      6 C         140.3501  143.1935  169.0957 C.ar    1  UNL1       -0.0045
      7 C         140.6896  142.9736  167.6513 C.ar    1  UNL1       -0.0228
      8 C         139.9361  143.2650  166.3875 C.3     1  UNL1        0.0477
      9 C         140.7830  142.8241  165.2307 C.3     1  UNL1        0.0983
     10 C         144.4367  142.5169  164.7619 C.2     1  UNL1        0.2241
     11 O         144.5426  143.8902  165.3557 O.2     1  UNL1       -0.2750
     12 N         143.1954  141.7017  164.9738 N.am    1  UNL1       -0.3007
     13 H         143.1259  140.8003  164.5841 H       1  UNL1        0.1497
     14 C         145.5721  141.9585  163.9562 C.3     1  UNL1        0.1023
     15 C         145.3604  141.5886  162.5180 C.3     1  UNL1        0.0818
     16 C         144.1775  139.2754  162.5386 C.3     1  UNL1        0.0897
     17 N         144.2016  140.7187  162.1302 N.3     1  UNL1       -0.2699
     18 C         143.0668  141.2919  161.3341 C.3     1  UNL1        0.0897
     19 N         140.4172  142.9287  163.7797 N.am    1  UNL1       -0.2990
     20 C         140.9764  144.0414  162.9436 C.2     1  UNL1        0.2636
     21 O         141.9015  145.0495  163.5584 O.2     1  UNL1       -0.2685
     22 H         139.8100  142.2671  163.3762 H       1  UNL1        0.1498
     23 C         140.6106  144.1460  161.4927 C.2     1  UNL1        0.1341
     24 C         140.8915  145.3142  160.5946 C.2     1  UNL1        0.0250
     25 C         140.3541  144.9910  159.2319 C.2     1  UNL1        0.0179
     26 C         140.3439  145.7656  157.9475 C.2     1  UNL1        0.0329
     27 C         139.7205  145.1723  156.7189 C.2     1  UNL1        0.1637
     28 F         139.7102  145.9468  155.4343 F       1  UNL1       -0.2021
     29 C         139.1075  143.8044  156.7748 C.2     1  UNL1        0.1508
     30 F         138.4841  143.2111  155.5462 F       1  UNL1       -0.2061
     31 C         139.1177  143.0299  158.0593 C.3     1  UNL1        0.1045
     32 C         139.7411  143.6232  159.2879 C.2     1  UNL1        0.0660
     33 N         139.8995  143.1009  160.6851 N.2     1  UNL1       -0.2447
@<TRIPOS>BOND
     1    16    17    1
     2    17    18    1
     3    17    15    1
     4    15    14    1
     5    14    10    1
     6    10    11    2
     7    10    12   am
     8     1    12    1
     9     1     2    1
    10     2     3   ar
    11     3     4   ar
    12     4     5   ar
    13     5     6   ar
    14     6     7   ar
    15     7     8    1
    16     8     9    1
    17     9    19    1
    18    19    20   am
    19    20    21    2
    20    20    23    1
    21    23    24    2
    22    24    25    1
    23    25    26    2
    24    26    27    1
    25    27    28    1
    26    27    29    2
    27    29    30    1
    28    29    31    1
    29    31    32    1
    30    32    33    2
    31     9     1    1
    32    33    23    1
    33     7     2   ar
    34    32    25    1
    35    12    13    1
    36    19    22    1
@<TRIPOS>MOLECULE
*****
 33 36 0 0 0
SMALL
GASTEIGER

@<TRIPOS>ATOM
      1 C         142.0070  141.0860  166.0908 C.3     1  UNL1        0.1121
      2 C         141.6756  140.6862  167.4981 C.ar    1  UNL1       -0.0068
      3 C         142.5408  140.3747  168.6832 C.ar    1  UNL1       -0.0029
      4 C         141.9125  139.9960  169.9915 C.ar    1  UNL1       -0.0003
      5 C         140.4191  139.9287  170.1148 C.ar    1  UNL1       -0.0003
      6 C         139.5539  140.2401  168.9297 C.ar    1  UNL1       -0.0045
      7 C         140.1822  140.6189  167.6213 C.ar    1  UNL1       -0.0228
      8 C         139.5907  140.9771  166.2902 C.3     1  UNL1        0.0477
      9 C         140.7185  141.2657  165.3443 C.3     1  UNL1        0.0983
     10 C         143.9858  140.2175  164.6484 C.2     1  UNL1        0.2241
     11 O         143.2084  138.9748  164.3301 O.2     1  UNL1       -0.2750
     12 N         143.3851  141.2731  165.5288 N.am    1  UNL1       -0.3007
     13 H         143.8954  142.0887  165.7377 H       1  UNL1        0.1497
     14 C         145.3639  140.4046  164.0864 C.3     1  UNL1        0.1023
     15 C         145.7202  141.6810  163.3837 C.3     1  UNL1        0.0818
     16 C         144.3156  143.8568  163.1749 C.3     1  UNL1        0.0897
     17 N         144.6552  142.4782  162.6907 N.3     1  UNL1       -0.2699
     18 C         143.9297  141.8968  161.5136 C.3     1  UNL1        0.0897
     19 N         140.5817  141.6642  163.9047 N.am    1  UNL1       -0.2990
     20 C         140.7333  143.1025  163.5070 C.2     1  UNL1        0.2636
     21 O         141.0216  144.1425  164.5489 O.2     1  UNL1       -0.2685
     22 H         140.3925  140.9817  163.2209 H       1  UNL1        0.1498
     23 C         140.5965  143.5010  162.0674 C.2     1  UNL1        0.1341
     24 C         139.7573  142.8065  161.0361 C.2     1  UNL1        0.0250
     25 C         139.9171  143.5402  159.7376 C.2     1  UNL1        0.0179
     26 C         139.3297  143.3113  158.3766 C.2     1  UNL1        0.0329
     27 C         139.6802  144.2304  157.2442 C.2     1  UNL1        0.1637
     28 F         139.0928  144.0015  155.8831 F       1  UNL1       -0.2021
     29 C         140.6182  145.3784  157.4729 C.2     1  UNL1        0.1508
     30 F         140.9687  146.2975  156.3404 F       1  UNL1       -0.2061
     31 C         141.2056  145.6073  158.8339 C.3     1  UNL1        0.1045
     32 C         140.8550  144.6882  159.9663 C.2     1  UNL1        0.0660
     33 N         141.2750  144.6641  161.4061 N.2     1  UNL1       -0.2447
@<TRIPOS>BOND
     1    16    17    1
     2    17    18    1
     3    17    15    1
     4    15    14    1
     5    14    10    1
     6    10    11    2
     7    10    12   am
     8     1    12    1
     9     1     2    1
    10     2     3   ar
    11     3     4   ar
    12     4     5   ar
    13     5     6   ar
    14     6     7   ar
    15     7     8    1
    16     8     9    1
    17     9    19    1
    18    19    20   am
    19    20    21    2
    20    20    23    1
    21    23    24    2
    22    24    25    1
    23    25    26    2
    24    26    27    1
    25    27    28    1
    26    27    29    2
    27    29    30    1
    28    29    31    1
    29    31    32    1
    30    32    33    2
    31     9     1    1
    32    33    23    1
    33     7     2   ar
    34    32    25    1
    35    12    13    1
    36    19    22    1
@<TRIPOS>MOLECULE
*****
 33 36 0 0 0
SMALL
GASTEIGER

@<TRIPOS>ATOM
      1 C         139.2860  141.0600  160.5711 C.3     1  UNL1        0.1121
      2 C         139.2265  140.7500  159.1047 C.ar    1  UNL1       -0.0068
      3 C         138.9795  141.6159  157.9050 C.ar    1  UNL1       -0.0029
      4 C         138.9793  141.0124  156.5318 C.ar    1  UNL1       -0.0003
      5 C         139.2262  139.5430  156.3583 C.ar    1  UNL1       -0.0003
      6 C         139.4732  138.6772  157.5579 C.ar    1  UNL1       -0.0045
      7 C         139.4734  139.2807  158.9311 C.ar    1  UNL1       -0.0228
      8 C         139.6854  138.6826  160.2903 C.3     1  UNL1        0.0477
      9 C         139.5696  139.7823  161.3039 C.3     1  UNL1        0.0983
     10 C         137.9910  142.6297  162.1865 C.2     1  UNL1        0.2241
     11 O         137.0775  141.4980  162.5538 O.2     1  UNL1       -0.2750
     12 N         139.0953  142.4107  161.1951 N.am    1  UNL1       -0.3007
     13 H         139.6948  143.1534  160.9541 H       1  UNL1        0.1497
     14 C         137.8003  143.9803  162.8106 C.3     1  UNL1        0.1023
     15 C         138.9128  144.9859  162.7766 C.3     1  UNL1        0.0818
     16 C         141.4852  144.8543  162.4367 C.3     1  UNL1        0.0897
     17 N         140.2735  144.6164  163.2884 N.3     1  UNL1       -0.2699
     18 C         140.4226  144.0091  164.6518 C.3     1  UNL1        0.0897
     19 N         139.7123  139.6309  162.7894 N.am    1  UNL1       -0.2990
     20 C         140.7869  140.3802  163.5198 C.2     1  UNL1        0.2636
     21 O         141.7189  141.2811  162.7648 O.2     1  UNL1       -0.2685
     22 H         139.1007  139.0396  163.2849 H       1  UNL1        0.1498
     23 C         140.9297  140.2288  165.0053 C.2     1  UNL1        0.1341
     24 C         139.8246  140.3417  166.0133 C.2     1  UNL1        0.0250
     25 C         140.4145  140.1206  167.3746 C.2     1  UNL1        0.0179
     26 C         139.8032  140.1142  168.7444 C.2     1  UNL1        0.0329
     27 C         140.6617  139.8582  169.9475 C.2     1  UNL1        0.1637
     28 F         140.0505  139.8519  171.3174 F       1  UNL1       -0.2021
     29 C         142.1313  139.6086  169.7809 C.2     1  UNL1        0.1508
     30 F         142.9898  139.3525  170.9841 F       1  UNL1       -0.2061
     31 C         142.7426  139.6149  168.4111 C.3     1  UNL1        0.1045
     32 C         141.8841  139.8709  167.2080 C.2     1  UNL1        0.0660
     33 N         142.2026  139.9377  165.7437 N.2     1  UNL1       -0.2447
@<TRIPOS>BOND
     1    16    17    1
     2    17    18    1
     3    17    15    1
     4    15    14    1
     5    14    10    1
     6    10    11    2
     7    10    12   am
     8     1    12    1
     9     1     2    1
    10     2     3   ar
    11     3     4   ar
    12     4     5   ar
    13     5     6   ar
    14     6     7   ar
    15     7     8    1
    16     8     9    1
    17     9    19    1
    18    19    20   am
    19    20    21    2
    20    20    23    1
    21    23    24    2
    22    24    25    1
    23    25    26    2
    24    26    27    1
    25    27    28    1
    26    27    29    2
    27    29    30    1
    28    29    31    1
    29    31    32    1
    30    32    33    2
    31     9     1    1
    32    33    23    1
    33     7     2   ar
    34    32    25    1
    35    12    13    1
    36    19    22    1
@<TRIPOS>MOLECULE
*****
 33 36 0 0 0
SMALL
GASTEIGER

@<TRIPOS>ATOM
      1 C         140.9441  142.4149  166.2749 C.3     1  UNL1        0.1121
      2 C         141.3042  142.2778  167.7246 C.ar    1  UNL1       -0.0068
      3 C         140.4644  142.1045  168.9553 C.ar    1  UNL1       -0.0029
      4 C         141.1190  141.9933  170.3003 C.ar    1  UNL1       -0.0003
      5 C         142.6134  142.0553  170.4146 C.ar    1  UNL1       -0.0003
      6 C         143.4531  142.2286  169.1839 C.ar    1  UNL1       -0.0045
      7 C         142.7985  142.3399  167.8389 C.ar    1  UNL1       -0.0228
      8 C         143.3620  142.5153  166.4598 C.3     1  UNL1        0.0477
      9 C         142.2159  142.5617  165.4932 C.3     1  UNL1        0.0983
     10 C         139.0847  141.2366  164.8948 C.2     1  UNL1        0.2241
     11 O         140.0017  140.0748  164.6512 O.2     1  UNL1       -0.2750
     12 N         139.5559  142.4067  165.7067 N.am    1  UNL1       -0.3007
     13 H         138.9541  143.1692  165.8665 H       1  UNL1        0.1497
     14 C         137.6965  141.2284  164.3266 C.3     1  UNL1        0.1023
     15 C         137.4909  141.3689  162.8474 C.3     1  UNL1        0.0818
     16 C         138.4800  142.5544  160.7578 C.3     1  UNL1        0.0897
     17 N         137.9179  142.6246  162.1468 N.3     1  UNL1       -0.2699
     18 C         137.7828  143.9505  162.8352 C.3     1  UNL1        0.0897
     19 N         142.3228  142.7260  164.0061 N.am    1  UNL1       -0.2990
     20 C         141.6669  143.8941  163.3315 C.2     1  UNL1        0.2636
     21 O         140.9039  144.8980  164.1440 O.2     1  UNL1       -0.2685
     22 H         142.8236  142.0671  163.4728 H       1  UNL1        0.1498
     23 C         141.7738  144.0584  161.8443 C.2     1  UNL1        0.1341
     24 C         142.5974  143.2109  160.9206 C.2     1  UNL1        0.0250
     25 C         142.4085  143.7277  159.5252 C.2     1  UNL1        0.0179
     26 C         142.9713  143.2865  158.2067 C.2     1  UNL1        0.0329
     27 C         142.5937  144.0123  156.9495 C.2     1  UNL1        0.1637
     28 F         143.1565  143.5711  155.6308 F       1  UNL1       -0.2021
     29 C         141.6533  145.1793  157.0108 C.2     1  UNL1        0.1508
     30 F         141.2757  145.9051  155.7535 F       1  UNL1       -0.2061
     31 C         141.0905  145.6205  158.3293 C.3     1  UNL1        0.1045
     32 C         141.4681  144.8947  159.5865 C.2     1  UNL1        0.0660
     33 N         141.0758  145.0992  161.0198 N.2     1  UNL1       -0.2447
@<TRIPOS>BOND
     1    16    17    1
     2    17    18    1
     3    17    15    1
     4    15    14    1
     5    14    10    1
     6    10    11    2
     7    10    12   am
     8     1    12    1
     9     1     2    1
    10     2     3   ar
    11     3     4   ar
    12     4     5   ar
    13     5     6   ar
    14     6     7   ar
    15     7     8    1
    16     8     9    1
    17     9    19    1
    18    19    20   am
    19    20    21    2
    20    20    23    1
    21    23    24    2
    22    24    25    1
    23    25    26    2
    24    26    27    1
    25    27    28    1
    26    27    29    2
    27    29    30    1
    28    29    31    1
    29    31    32    1
    30    32    33    2
    31     9     1    1
    32    33    23    1
    33     7     2   ar
    34    32    25    1
    35    12    13    1
    36    19    22    1
@<TRIPOS>MOLECULE
*****
 33 36 0 0 0
SMALL
GASTEIGER

@<TRIPOS>ATOM
      1 C         141.2447  141.5989  166.1694 C.3     1  UNL1        0.1121
      2 C         140.6944  141.7464  167.5570 C.ar    1  UNL1       -0.0068
      3 C         140.8086  142.8464  168.5703 C.ar    1  UNL1       -0.0029
      4 C         140.1354  142.7105  169.9038 C.ar    1  UNL1       -0.0003
      5 C         139.3479  141.4746  170.2239 C.ar    1  UNL1       -0.0003
      6 C         139.2337  140.3746  169.2106 C.ar    1  UNL1       -0.0045
      7 C         139.9069  140.5105  167.8771 C.ar    1  UNL1       -0.0228
      8 C         139.9706  139.5992  166.6873 C.3     1  UNL1        0.0477
      9 C         140.7974  140.2718  165.6319 C.3     1  UNL1        0.0983
     10 C         141.4466  143.7010  164.6559 C.2     1  UNL1        0.2241
     11 O         139.9511  143.7963  164.5887 O.2     1  UNL1       -0.2750
     12 N         142.0934  142.6023  165.4462 N.am    1  UNL1       -0.3007
     13 H         143.0749  142.5397  165.4903 H       1  UNL1        0.1497
     14 C         142.2953  144.7044  163.9327 C.3     1  UNL1        0.1023
     15 C         143.7851  144.5353  163.8911 C.3     1  UNL1        0.0818
     16 C         145.2295  142.3757  163.8914 C.3     1  UNL1        0.0897
     17 N         144.3879  143.3756  163.1551 N.3     1  UNL1       -0.2699
     18 C         144.1492  143.2157  161.6829 C.3     1  UNL1        0.0897
     19 N         141.1201  139.7152  164.2769 N.am    1  UNL1       -0.2990
     20 C         140.2042  139.9811  163.1192 C.2     1  UNL1        0.2636
     21 O         138.9654  140.8037  163.3165 O.2     1  UNL1       -0.2685
     22 H         141.9332  139.1754  164.1474 H       1  UNL1        0.1498
     23 C         140.5269  139.4245  161.7642 C.2     1  UNL1        0.1341
     24 C         139.5619  139.2529  160.6288 C.2     1  UNL1        0.0250
     25 C         140.3100  138.6641  159.4696 C.2     1  UNL1        0.0179
     26 C         139.8758  138.2783  158.0866 C.2     1  UNL1        0.0329
     27 C         140.8690  137.7000  157.1227 C.2     1  UNL1        0.1637
     28 F         140.4349  137.3141  155.7397 F       1  UNL1       -0.2021
     29 C         142.2964  137.5076  157.5418 C.2     1  UNL1        0.1508
     30 F         143.2896  136.9293  156.5778 F       1  UNL1       -0.2061
     31 C         142.7305  137.8934  158.9247 C.3     1  UNL1        0.1045
     32 C         141.7373  138.4717  159.8886 C.2     1  UNL1        0.0660
     33 N         141.8715  138.9416  161.3068 N.2     1  UNL1       -0.2447
@<TRIPOS>BOND
     1    16    17    1
     2    17    18    1
     3    17    15    1
     4    15    14    1
     5    14    10    1
     6    10    11    2
     7    10    12   am
     8     1    12    1
     9     1     2    1
    10     2     3   ar
    11     3     4   ar
    12     4     5   ar
    13     5     6   ar
    14     6     7   ar
    15     7     8    1
    16     8     9    1
    17     9    19    1
    18    19    20   am
    19    20    21    2
    20    20    23    1
    21    23    24    2
    22    24    25    1
    23    25    26    2
    24    26    27    1
    25    27    28    1
    26    27    29    2
    27    29    30    1
    28    29    31    1
    29    31    32    1
    30    32    33    2
    31     9     1    1
    32    33    23    1
    33     7     2   ar
    34    32    25    1
    35    12    13    1
    36    19    22    1
@<TRIPOS>MOLECULE
*****
 33 36 0 0 0
SMALL
GASTEIGER

@<TRIPOS>ATOM
      1 C         139.7335  142.5304  160.6219 C.3     1  UNL1        0.1121
      2 C         139.8088  143.4150  159.4129 C.ar    1  UNL1       -0.0068
      3 C         139.5304  143.1571  157.9617 C.ar    1  UNL1       -0.0029
      4 C         139.6959  144.2601  156.9588 C.ar    1  UNL1       -0.0003
      5 C         140.1399  145.6210  157.4070 C.ar    1  UNL1       -0.0003
      6 C         140.4183  145.8789  158.8582 C.ar    1  UNL1       -0.0045
      7 C         140.2527  144.7759  159.8611 C.ar    1  UNL1       -0.0228
      8 C         140.4518  144.7323  161.3472 C.3     1  UNL1        0.0477
      9 C         140.1310  143.3445  161.8174 C.3     1  UNL1        0.0983
     10 C         138.1220  140.6495  161.4064 C.2     1  UNL1        0.2241
     11 O         137.3147  141.6587  162.1679 O.2     1  UNL1       -0.2750
     12 N         139.3315  141.0853  160.6335 N.am    1  UNL1       -0.3007
     13 H         139.8613  140.4230  160.1337 H       1  UNL1        0.1497
     14 C         137.7199  139.2044  161.4180 C.3     1  UNL1        0.1023
     15 C         138.7416  138.1396  161.1495 C.3     1  UNL1        0.0818
     16 C         139.9061  138.0745  163.4711 C.3     1  UNL1        0.0897
     17 N         139.9934  138.0765  161.9736 N.3     1  UNL1       -0.2699
     18 C         141.3324  138.0153  161.3002 C.3     1  UNL1        0.0897
     19 N         140.1961  142.8566  163.2344 N.am    1  UNL1       -0.2990
     20 C         141.1063  141.7202  163.5952 C.2     1  UNL1        0.2636
     21 O         141.9514  141.0718  162.5390 O.2     1  UNL1       -0.2685
     22 H         139.6415  143.2822  163.9275 H       1  UNL1        0.1498
     23 C         141.1714  141.2323  165.0121 C.2     1  UNL1        0.1341
     24 C         142.3505  140.5731  165.6643 C.2     1  UNL1        0.0250
     25 C         141.9767  140.2513  167.0809 C.2     1  UNL1        0.0179
     26 C         142.7381  139.5986  168.1963 C.2     1  UNL1        0.0329
     27 C         142.0895  139.4062  169.5350 C.2     1  UNL1        0.1637
     28 F         142.8510  138.7534  170.6505 F       1  UNL1       -0.2021
     29 C         140.6794  139.8664  169.7583 C.2     1  UNL1        0.1508
     30 F         140.0308  139.6739  171.0971 F       1  UNL1       -0.2061
     31 C         139.9180  140.5191  168.6429 C.3     1  UNL1        0.1045
     32 C         140.5666  140.7115  167.3042 C.2     1  UNL1        0.0660
     33 N         140.0689  141.3178  166.0256 N.2     1  UNL1       -0.2447
@<TRIPOS>BOND
     1    16    17    1
     2    17    18    1
     3    17    15    1
     4    15    14    1
     5    14    10    1
     6    10    11    2
     7    10    12   am
     8     1    12    1
     9     1     2    1
    10     2     3   ar
    11     3     4   ar
    12     4     5   ar
    13     5     6   ar
    14     6     7   ar
    15     7     8    1
    16     8     9    1
    17     9    19    1
    18    19    20   am
    19    20    21    2
    20    20    23    1
    21    23    24    2
    22    24    25    1
    23    25    26    2
    24    26    27    1
    25    27    28    1
    26    27    29    2
    27    29    30    1
    28    29    31    1
    29    31    32    1
    30    32    33    2
    31     9     1    1
    32    33    23    1
    33     7     2   ar
    34    32    25    1
    35    12    13    1
    36    19    22    1
@<TRIPOS>MOLECULE
*****
 33 36 0 0 0
SMALL
GASTEIGER

@<TRIPOS>ATOM
      1 C         141.1108  141.7110  166.1658 C.3     1  UNL1        0.1121
      2 C         140.5995  141.8498  167.5691 C.ar    1  UNL1       -0.0068
      3 C         140.6406  142.9888  168.5443 C.ar    1  UNL1       -0.0029
      4 C         140.0332  142.8318  169.9068 C.ar    1  UNL1       -0.0003
      5 C         139.3848  141.5359  170.2941 C.ar    1  UNL1       -0.0003
      6 C         139.3437  140.3969  169.3190 C.ar    1  UNL1       -0.0045
      7 C         139.9511  140.5539  167.9565 C.ar    1  UNL1       -0.0228
      8 C         140.0616  139.6142  166.7925 C.3     1  UNL1        0.0477
      9 C         140.7784  140.3293  165.6858 C.3     1  UNL1        0.0983
     10 C         141.0501  143.8549  164.6994 C.2     1  UNL1        0.2241
     11 O         139.5540  143.8841  164.8039 O.2     1  UNL1       -0.2750
     12 N         141.8285  142.7684  165.3804 N.am    1  UNL1       -0.3007
     13 H         142.8104  142.7493  165.3118 H       1  UNL1        0.1497
     14 C         141.7678  144.9123  163.9139 C.3     1  UNL1        0.1023
     15 C         141.7530  144.8724  162.4146 C.3     1  UNL1        0.0818
     16 C         139.7109  146.3029  161.6837 C.3     1  UNL1        0.0897
     17 N         140.4549  145.0004  161.6738 N.3     1  UNL1       -0.2699
     18 C         139.9009  143.8258  160.9232 C.3     1  UNL1        0.0897
     19 N         141.1053  139.7624  164.3361 N.am    1  UNL1       -0.2990
     20 C         140.1937  140.0206  163.1733 C.2     1  UNL1        0.2636
     21 O         138.9550  140.8458  163.3601 O.2     1  UNL1       -0.2685
     22 H         141.9183  139.2208  164.2135 H       1  UNL1        0.1498
     23 C         140.5206  139.4536  161.8236 C.2     1  UNL1        0.1341
     24 C         139.5655  139.2985  160.6775 C.2     1  UNL1        0.0250
     25 C         140.3146  138.6912  159.5286 C.2     1  UNL1        0.0179
     26 C         139.8887  138.3104  158.1417 C.2     1  UNL1        0.0329
     27 C         140.8809  137.7092  157.1910 C.2     1  UNL1        0.1637
     28 F         140.4549  137.3283  155.8040 F       1  UNL1       -0.2021
     29 C         142.2991  137.4889  157.6270 C.2     1  UNL1        0.1508
     30 F         143.2913  136.8877  156.6762 F       1  UNL1       -0.2061
     31 C         142.7251  137.8698  159.0139 C.3     1  UNL1        0.1045
     32 C         141.7328  138.4709  159.9647 C.2     1  UNL1        0.0660
     33 N         141.8602  138.9421  161.3831 N.2     1  UNL1       -0.2447
@<TRIPOS>BOND
     1    16    17    1
     2    17    18    1
     3    17    15    1
     4    15    14    1
     5    14    10    1
     6    10    11    2
     7    10    12   am
     8     1    12    1
     9     1     2    1
    10     2     3   ar
    11     3     4   ar
    12     4     5   ar
    13     5     6   ar
    14     6     7   ar
    15     7     8    1
    16     8     9    1
    17     9    19    1
    18    19    20   am
    19    20    21    2
    20    20    23    1
    21    23    24    2
    22    24    25    1
    23    25    26    2
    24    26    27    1
    25    27    28    1
    26    27    29    2
    27    29    30    1
    28    29    31    1
    29    31    32    1
    30    32    33    2
    31     9     1    1
    32    33    23    1
    33     7     2   ar
    34    32    25    1
    35    12    13    1
    36    19    22    1
