@<TRIPOS>MOLECULE
*****
 32 35 0 0 0
SMALL
GASTEIGER

@<TRIPOS>ATOM
      1 C         139.5451  146.1255  155.8752 C.ar    1  UNL1        0.0522
      2 C         140.4344  145.9231  157.0660 C.ar    1  UNL1        0.0167
      3 C         140.3923  144.6282  157.8220 C.ar    1  UNL1        0.0505
      4 C         139.4609  143.5358  157.3871 C.ar    1  UNL1        0.0170
      5 C         138.5715  143.7383  156.1963 C.ar    1  UNL1        0.0307
      6 C         138.6137  145.0333  155.4403 C.ar    1  UNL1        0.1401
      7 F         137.7243  145.2358  154.2495 F       1  UNL1       -0.2044
      8 C         140.2764  146.5219  154.1354 C.3     1  UNL1        0.0601
      9 C         139.5872  147.4205  155.1191 C.3     1  UNL1        0.2163
     10 C         139.8687  148.4033  154.0214 C.3     1  UNL1        0.1608
     11 N         139.4463  149.8349  154.1700 N.ar    1  UNL1       -0.2996
     12 C         139.5865  151.0219  153.2637 C.ar    1  UNL1        0.0983
     13 C         138.9693  152.2043  153.9499 C.ar    1  UNL1        0.1194
     14 N         138.4477  151.7481  155.2803 N.ar    1  UNL1       -0.2186
     15 C         138.7425  150.2837  155.4163 C.ar    1  UNL1        0.2274
     16 C         138.4610  149.3009  156.5140 C.2     1  UNL1        0.3476
     17 N         137.7572  149.7497  157.7602 N.pl3   1  UNL1       -0.2439
     18 N         138.8834  147.8693  156.3653 N.2     1  UNL1       -0.0653
     19 H         137.4800  150.6893  157.8578 H       1  UNL1        0.2885
     20 H         137.5725  149.1046  158.4807 H       1  UNL1        0.2885
     21 N         141.2817  144.4257  159.0128 N.am    1  UNL1       -0.2791
     22 C         140.8847  144.9808  160.3485 C.2     1  UNL1        0.2672
     23 O         139.5982  145.7384  160.4935 O.2     1  UNL1       -0.2682
     24 H         142.1260  143.9285  158.9176 H       1  UNL1        0.1552
     25 C         141.7741  144.7783  161.5393 C.ar    1  UNL1        0.1348
     26 C         141.3068  145.1918  162.9033 C.ar    1  UNL1        0.0245
     27 C         142.1962  144.9893  164.0941 C.ar    1  UNL1        0.0135
     28 C         143.5529  144.3734  163.9208 C.ar    1  UNL1        0.0876
     29 C         144.0201  143.9599  162.5567 C.ar    1  UNL1        0.1092
     30 N         143.1308  144.1624  161.3660 N.ar    1  UNL1       -0.2385
     31 C         144.4423  144.1709  165.1116 C.1     1  UNL1        0.1020
     32 N         145.3316  143.9684  166.3024 N.1     1  UNL1       -0.1908
@<TRIPOS>BOND
     1     9     8    1
     2     9     1    1
     3     1     2   ar
     4     2     3   ar
     5     3    21    1
     6    21    22   am
     7    22    23    2
     8    22    25    1
     9    25    26   ar
    10    26    27   ar
    11    27    28   ar
    12    28    31    1
    13    31    32    3
    14    28    29   ar
    15    29    30   ar
    16     3     4   ar
    17     4     5   ar
    18     5     6   ar
    19     6     7    1
    20     9    10    1
    21    10    11    1
    22    11    12   ar
    23    12    13   ar
    24    13    14   ar
    25    14    15   ar
    26    15    16    1
    27    16    17    1
    28    16    18    2
    29    18     9    1
    30     6     1   ar
    31    15    11   ar
    32    30    25   ar
    33    21    24    1
    34    17    19    1
    35    17    20    1
@<TRIPOS>MOLECULE
*****
 32 35 0 0 0
SMALL
GASTEIGER

@<TRIPOS>ATOM
      1 C         139.5662  139.2932  164.6394 C.ar    1  UNL1        0.0522
      2 C         139.8786  140.2814  163.5551 C.ar    1  UNL1        0.0167
      3 C         139.5943  139.9381  162.1228 C.ar    1  UNL1        0.0505
      4 C         138.9976  138.6066  161.7749 C.ar    1  UNL1        0.0170
      5 C         138.6852  137.6183  162.8593 C.ar    1  UNL1        0.0307
      6 C         138.9696  137.9618  164.2916 C.ar    1  UNL1        0.1401
      7 F         138.6572  136.9735  165.3760 F       1  UNL1       -0.2044
      8 C         138.4098  140.0458  165.9867 C.3     1  UNL1        0.0601
      9 C         139.8505  139.6365  166.0717 C.3     1  UNL1        0.2163
     10 C         139.6343  140.1220  167.4745 C.3     1  UNL1        0.1608
     11 N         140.7601  140.0789  168.4648 N.ar    1  UNL1       -0.2996
     12 C         140.8449  140.4851  169.9062 C.ar    1  UNL1        0.0983
     13 C         142.2393  140.2077  170.3846 C.ar    1  UNL1        0.1194
     14 N         143.0162  139.6301  169.2389 N.ar    1  UNL1       -0.2186
     15 C         142.1020  139.5504  168.0523 C.ar    1  UNL1        0.2274
     16 C         142.3181  139.0650  166.6496 C.2     1  UNL1        0.3476
     17 N         143.6599  138.5366  166.2372 N.pl3   1  UNL1       -0.2439
     18 N         141.1923  139.1081  165.6593 N.2     1  UNL1       -0.0653
     19 H         144.3989  138.5083  166.8871 H       1  UNL1        0.2885
     20 H         143.8018  138.2180  165.3165 H       1  UNL1        0.2885
     21 N         139.9067  140.9264  161.0385 N.am    1  UNL1       -0.2791
     22 C         138.9414  142.0325  160.7309 C.2     1  UNL1        0.2672
     23 O         137.6636  142.1504  161.5076 O.2     1  UNL1       -0.2682
     24 H         140.7454  140.8490  160.5287 H       1  UNL1        0.1552
     25 C         139.2538  143.0208  159.6465 C.ar    1  UNL1        0.1348
     26 C         138.9427  142.6891  158.2172 C.ar    1  UNL1        0.0245
     27 C         139.2551  143.6773  157.1328 C.ar    1  UNL1        0.0135
     28 C         139.8787  144.9972  157.4779 C.ar    1  UNL1        0.0876
     29 C         140.1898  145.3288  158.9073 C.ar    1  UNL1        0.1092
     30 N         139.8774  144.3406  159.9917 N.ar    1  UNL1       -0.2385
     31 C         140.1912  145.9854  156.3935 C.1     1  UNL1        0.1020
     32 N         140.5036  146.9737  155.3093 N.1     1  UNL1       -0.1908
@<TRIPOS>BOND
     1     9     8    1
     2     9     1    1
     3     1     2   ar
     4     2     3   ar
     5     3    21    1
     6    21    22   am
     7    22    23    2
     8    22    25    1
     9    25    26   ar
    10    26    27   ar
    11    27    28   ar
    12    28    31    1
    13    31    32    3
    14    28    29   ar
    15    29    30   ar
    16     3     4   ar
    17     4     5   ar
    18     5     6   ar
    19     6     7    1
    20     9    10    1
    21    10    11    1
    22    11    12   ar
    23    12    13   ar
    24    13    14   ar
    25    14    15   ar
    26    15    16    1
    27    16    17    1
    28    16    18    2
    29    18     9    1
    30     6     1   ar
    31    15    11   ar
    32    30    25   ar
    33    21    24    1
    34    17    19    1
    35    17    20    1
@<TRIPOS>MOLECULE
*****
 32 35 0 0 0
SMALL
GASTEIGER

@<TRIPOS>ATOM
      1 C         140.2437  139.3180  164.6352 C.ar    1  UNL1        0.0522
      2 C         140.9474  139.9590  163.4760 C.ar    1  UNL1        0.0167
      3 C         140.7734  139.4044  162.0932 C.ar    1  UNL1        0.0505
      4 C         139.8956  138.2087  161.8697 C.ar    1  UNL1        0.0170
      5 C         139.1919  137.5677  163.0290 C.ar    1  UNL1        0.0307
      6 C         139.3660  138.1224  164.4118 C.ar    1  UNL1        0.1401
      7 F         138.6622  137.4814  165.5710 F       1  UNL1       -0.2044
      8 C         139.1172  140.5178  165.6404 C.3     1  UNL1        0.0601
      9 C         140.4177  139.8727  166.0181 C.3     1  UNL1        0.2163
     10 C         140.1399  140.6514  167.2697 C.3     1  UNL1        0.1608
     11 N         141.1023  140.5923  168.4188 N.ar    1  UNL1       -0.2996
     12 C         141.0951  141.2463  169.7687 C.ar    1  UNL1        0.0983
     13 C         142.3306  140.8128  170.5004 C.ar    1  UNL1        0.1194
     14 N         143.1015  139.8909  169.6027 N.ar    1  UNL1       -0.2186
     15 C         142.3424  139.7546  168.3162 C.ar    1  UNL1        0.2274
     16 C         142.6200  138.9759  167.0646 C.2     1  UNL1        0.3476
     17 N         143.8601  138.1382  166.9620 N.pl3   1  UNL1       -0.2439
     18 N         141.6576  139.0350  165.9155 N.2     1  UNL1       -0.0653
     19 H         144.4917  138.0994  167.7162 H       1  UNL1        0.2885
     20 H         144.0423  137.6271  166.1405 H       1  UNL1        0.2885
     21 N         141.4771  140.0454  160.9340 N.am    1  UNL1       -0.2791
     22 C         142.9394  139.7951  160.7127 C.2     1  UNL1        0.2672
     23 O         143.6980  138.9037  161.6507 O.2     1  UNL1       -0.2682
     24 H         140.9792  140.6305  160.3183 H       1  UNL1        0.1552
     25 C         143.6431  140.4362  159.5534 C.ar    1  UNL1        0.1348
     26 C         144.1247  141.8528  159.6588 C.ar    1  UNL1        0.0245
     27 C         144.8285  142.4939  158.4996 C.ar    1  UNL1        0.0135
     28 C         145.0505  141.7183  157.2350 C.ar    1  UNL1        0.0876
     29 C         144.5688  140.3016  157.1297 C.ar    1  UNL1        0.1092
     30 N         143.8651  139.6605  158.2889 N.ar    1  UNL1       -0.2385
     31 C         145.7542  142.3594  156.0757 C.1     1  UNL1        0.1020
     32 N         146.4578  143.0005  154.9165 N.1     1  UNL1       -0.1908
@<TRIPOS>BOND
     1     9     8    1
     2     9     1    1
     3     1     2   ar
     4     2     3   ar
     5     3    21    1
     6    21    22   am
     7    22    23    2
     8    22    25    1
     9    25    26   ar
    10    26    27   ar
    11    27    28   ar
    12    28    31    1
    13    31    32    3
    14    28    29   ar
    15    29    30   ar
    16     3     4   ar
    17     4     5   ar
    18     5     6   ar
    19     6     7    1
    20     9    10    1
    21    10    11    1
    22    11    12   ar
    23    12    13   ar
    24    13    14   ar
    25    14    15   ar
    26    15    16    1
    27    16    17    1
    28    16    18    2
    29    18     9    1
    30     6     1   ar
    31    15    11   ar
    32    30    25   ar
    33    21    24    1
    34    17    19    1
    35    17    20    1
@<TRIPOS>MOLECULE
*****
 32 35 0 0 0
SMALL
GASTEIGER

@<TRIPOS>ATOM
      1 C         139.4067  142.1410  164.2845 C.ar    1  UNL1        0.0522
      2 C         140.0856  141.3828  163.1827 C.ar    1  UNL1        0.0167
      3 C         139.5732  141.4837  161.7765 C.ar    1  UNL1        0.0505
      4 C         138.3818  142.3429  161.4723 C.ar    1  UNL1        0.0170
      5 C         137.7029  143.1011  162.5742 C.ar    1  UNL1        0.0307
      6 C         138.2154  143.0001  163.9804 C.ar    1  UNL1        0.1401
      7 F         137.5364  143.7583  165.0823 F       1  UNL1       -0.2044
      8 C         140.6460  143.2711  165.2363 C.3     1  UNL1        0.0601
      9 C         139.9191  142.0401  165.6908 C.3     1  UNL1        0.2163
     10 C         140.6840  142.3668  166.9391 C.3     1  UNL1        0.1608
     11 N         140.5440  141.4975  168.1535 N.ar    1  UNL1       -0.2996
     12 C         141.1667  141.5691  169.5162 C.ar    1  UNL1        0.0983
     13 C         140.6467  140.4175  170.3245 C.ar    1  UNL1        0.1194
     14 N         139.7026  139.6342  169.4614 N.ar    1  UNL1       -0.2186
     15 C         139.6391  140.3017  168.1196 C.ar    1  UNL1        0.2274
     16 C         138.8742  139.9751  166.8713 C.2     1  UNL1        0.3476
     17 N         137.9694  138.7792  166.8373 N.pl3   1  UNL1       -0.2439
     18 N         139.0143  140.8443  165.6569 N.2     1  UNL1       -0.0653
     19 H         137.8775  138.2087  167.6344 H       1  UNL1        0.2885
     20 H         137.4674  138.5649  166.0180 H       1  UNL1        0.2885
     21 N         140.2522  140.7255  160.6747 N.am    1  UNL1       -0.2791
     22 C         139.6809  139.4231  160.1978 C.2     1  UNL1        0.2672
     23 O         138.4307  138.8789  160.8228 O.2     1  UNL1       -0.2682
     24 H         141.0727  141.0828  160.2644 H       1  UNL1        0.1552
     25 C         140.3600  138.6649  159.0959 C.ar    1  UNL1        0.1348
     26 C         141.8341  138.3974  159.1675 C.ar    1  UNL1        0.0245
     27 C         142.5131  137.6392  158.0656 C.ar    1  UNL1        0.0135
     28 C         141.7179  137.1486  156.8922 C.ar    1  UNL1        0.0876
     29 C         140.2437  137.4161  156.8207 C.ar    1  UNL1        0.1092
     30 N         139.5647  138.1743  157.9225 N.ar    1  UNL1       -0.2385
     31 C         142.3970  136.3904  155.7903 C.1     1  UNL1        0.1020
     32 N         143.0760  135.6323  154.6885 N.1     1  UNL1       -0.1908
@<TRIPOS>BOND
     1     9     8    1
     2     9     1    1
     3     1     2   ar
     4     2     3   ar
     5     3    21    1
     6    21    22   am
     7    22    23    2
     8    22    25    1
     9    25    26   ar
    10    26    27   ar
    11    27    28   ar
    12    28    31    1
    13    31    32    3
    14    28    29   ar
    15    29    30   ar
    16     3     4   ar
    17     4     5   ar
    18     5     6   ar
    19     6     7    1
    20     9    10    1
    21    10    11    1
    22    11    12   ar
    23    12    13   ar
    24    13    14   ar
    25    14    15   ar
    26    15    16    1
    27    16    17    1
    28    16    18    2
    29    18     9    1
    30     6     1   ar
    31    15    11   ar
    32    30    25   ar
    33    21    24    1
    34    17    19    1
    35    17    20    1
@<TRIPOS>MOLECULE
*****
 32 35 0 0 0
SMALL
GASTEIGER

@<TRIPOS>ATOM
      1 C         140.4005  143.6341  163.3139 C.ar    1  UNL1        0.0522
      2 C         141.4370  143.3643  162.2638 C.ar    1  UNL1        0.0167
      3 C         141.6267  144.3300  161.1318 C.ar    1  UNL1        0.0505
      4 C         140.7799  145.5655  161.0500 C.ar    1  UNL1        0.0170
      5 C         139.7434  145.8352  162.1002 C.ar    1  UNL1        0.0307
      6 C         139.5537  144.8694  163.2322 C.ar    1  UNL1        0.1401
      7 F         138.5171  145.1392  164.2824 F       1  UNL1       -0.2044
      8 C         141.3878  143.4436  164.9595 C.3     1  UNL1        0.0601
      9 C         140.2107  142.6684  164.4460 C.3     1  UNL1        0.2163
     10 C         140.4298  141.9720  165.7564 C.3     1  UNL1        0.1608
     11 N         139.5377  140.8357  166.1602 N.ar    1  UNL1       -0.2996
     12 C         139.5115  139.9654  167.3816 C.ar    1  UNL1        0.0983
     13 C         138.3842  138.9876  167.2298 C.ar    1  UNL1        0.1194
     14 N         137.7136  139.2536  165.9147 N.ar    1  UNL1       -0.2186
     15 C         138.4265  140.3959  165.2536 C.ar    1  UNL1        0.2274
     16 C         138.2075  141.0923  163.9433 C.2     1  UNL1        0.3476
     17 N         137.0963  140.6524  163.0367 N.pl3   1  UNL1       -0.2439
     18 N         139.0996  142.2286  163.5395 N.2     1  UNL1       -0.0653
     19 H         136.5108  139.9067  163.3017 H       1  UNL1        0.2885
     20 H         136.9526  141.1095  162.1766 H       1  UNL1        0.2885
     21 N         142.6632  144.0603  160.0816 N.am    1  UNL1       -0.2791
     22 C         142.3260  143.2034  158.8975 C.2     1  UNL1        0.2672
     23 O         140.9523  142.6163  158.7636 O.2     1  UNL1       -0.2682
     24 H         143.5649  144.4456  160.1696 H       1  UNL1        0.1552
     25 C         143.3626  142.9337  157.8474 C.ar    1  UNL1        0.1348
     26 C         143.0324  143.1359  156.3983 C.ar    1  UNL1        0.0245
     27 C         144.0690  142.8662  155.3482 C.ar    1  UNL1        0.0135
     28 C         145.4357  142.3942  155.7472 C.ar    1  UNL1        0.0876
     29 C         145.7659  142.1919  157.1964 C.ar    1  UNL1        0.1092
     30 N         144.7294  142.4616  158.2465 N.ar    1  UNL1       -0.2385
     31 C         146.4723  142.1244  154.6971 C.1     1  UNL1        0.1020
     32 N         147.5088  141.8546  153.6469 N.1     1  UNL1       -0.1908
@<TRIPOS>BOND
     1     9     8    1
     2     9     1    1
     3     1     2   ar
     4     2     3   ar
     5     3    21    1
     6    21    22   am
     7    22    23    2
     8    22    25    1
     9    25    26   ar
    10    26    27   ar
    11    27    28   ar
    12    28    31    1
    13    31    32    3
    14    28    29   ar
    15    29    30   ar
    16     3     4   ar
    17     4     5   ar
    18     5     6   ar
    19     6     7    1
    20     9    10    1
    21    10    11    1
    22    11    12   ar
    23    12    13   ar
    24    13    14   ar
    25    14    15   ar
    26    15    16    1
    27    16    17    1
    28    16    18    2
    29    18     9    1
    30     6     1   ar
    31    15    11   ar
    32    30    25   ar
    33    21    24    1
    34    17    19    1
    35    17    20    1
@<TRIPOS>MOLECULE
*****
 32 35 0 0 0
SMALL
GASTEIGER

@<TRIPOS>ATOM
      1 C         141.2634  139.6424  164.3432 C.ar    1  UNL1        0.0522
      2 C         140.9053  140.6839  163.3249 C.ar    1  UNL1        0.0167
      3 C         140.8451  140.3214  161.8705 C.ar    1  UNL1        0.0505
      4 C         141.1431  138.9174  161.4347 C.ar    1  UNL1        0.0170
      5 C         141.5013  137.8759  162.4531 C.ar    1  UNL1        0.0307
      6 C         141.5614  138.2385  163.9073 C.ar    1  UNL1        0.1401
      7 F         141.9195  137.1970  164.9257 F       1  UNL1       -0.2044
      8 C         142.6889  140.4479  165.3620 C.3     1  UNL1        0.0601
      9 C         141.3236  140.0049  165.7976 C.3     1  UNL1        0.2163
     10 C         141.8580  140.5212  167.1006 C.3     1  UNL1        0.1608
     11 N         141.0061  140.4687  168.3341 N.ar    1  UNL1       -0.2996
     12 C         141.2602  140.8991  169.7484 C.ar    1  UNL1        0.0983
     13 C         140.0310  140.5962  170.5530 C.ar    1  UNL1        0.1194
     14 N         139.0172  139.9786  169.6360 N.ar    1  UNL1       -0.2186
     15 C         139.6199  139.8997  168.2646 C.ar    1  UNL1        0.2274
     16 C         139.0856  139.3834  166.9616 C.2     1  UNL1        0.3476
     17 N         137.6994  138.8145  166.8921 N.pl3   1  UNL1       -0.2439
     18 N         139.9375  139.4360  165.7281 N.2     1  UNL1       -0.0653
     19 H         137.1403  138.7799  167.7017 H       1  UNL1        0.2885
     20 H         137.3487  138.4756  166.0369 H       1  UNL1        0.2885
     21 N         140.4870  141.3628  160.8523 N.am    1  UNL1       -0.2791
     22 C         141.5442  142.2812  160.3148 C.2     1  UNL1        0.2672
     23 O         142.9597  142.1580  160.7957 O.2     1  UNL1       -0.2682
     24 H         139.5579  141.4437  160.5366 H       1  UNL1        0.1552
     25 C         141.1860  143.3227  159.2964 C.ar    1  UNL1        0.1348
     26 C         140.0436  143.0877  158.3533 C.ar    1  UNL1        0.0245
     27 C         139.6854  144.1292  157.3349 C.ar    1  UNL1        0.0135
     28 C         140.4697  145.4057  157.2598 C.ar    1  UNL1        0.0876
     29 C         141.6121  145.6406  158.2031 C.ar    1  UNL1        0.1092
     30 N         141.9703  144.5992  159.2214 N.ar    1  UNL1       -0.2385
     31 C         140.1114  146.4472  156.2415 C.1     1  UNL1        0.1020
     32 N         139.7532  147.4886  155.2232 N.1     1  UNL1       -0.1908
@<TRIPOS>BOND
     1     9     8    1
     2     9     1    1
     3     1     2   ar
     4     2     3   ar
     5     3    21    1
     6    21    22   am
     7    22    23    2
     8    22    25    1
     9    25    26   ar
    10    26    27   ar
    11    27    28   ar
    12    28    31    1
    13    31    32    3
    14    28    29   ar
    15    29    30   ar
    16     3     4   ar
    17     4     5   ar
    18     5     6   ar
    19     6     7    1
    20     9    10    1
    21    10    11    1
    22    11    12   ar
    23    12    13   ar
    24    13    14   ar
    25    14    15   ar
    26    15    16    1
    27    16    17    1
    28    16    18    2
    29    18     9    1
    30     6     1   ar
    31    15    11   ar
    32    30    25   ar
    33    21    24    1
    34    17    19    1
    35    17    20    1
@<TRIPOS>MOLECULE
*****
 32 35 0 0 0
SMALL
GASTEIGER

@<TRIPOS>ATOM
      1 C         139.0435  141.0079  164.1170 C.ar    1  UNL1        0.0522
      2 C         139.3875  140.0972  162.9759 C.ar    1  UNL1        0.0167
      3 C         138.9168  140.4218  161.5890 C.ar    1  UNL1        0.0505
      4 C         138.1021  141.6572  161.3436 C.ar    1  UNL1        0.0170
      5 C         137.7581  142.5679  162.4848 C.ar    1  UNL1        0.0307
      6 C         138.2289  142.2431  163.8716 C.ar    1  UNL1        0.1401
      7 F         137.8849  143.1538  165.0128 F       1  UNL1       -0.2044
      8 C         138.2247  139.9172  165.4804 C.3     1  UNL1        0.0601
      9 C         139.5142  140.6832  165.5038 C.3     1  UNL1        0.2163
     10 C         139.5370  140.0925  166.8825 C.3     1  UNL1        0.1608
     11 N         140.6859  140.3806  167.8029 N.ar    1  UNL1       -0.2996
     12 C         140.9813  139.9429  169.2068 C.ar    1  UNL1        0.0983
     13 C         142.2898  140.5511  169.6163 C.ar    1  UNL1        0.1194
     14 N         142.8032  141.3647  168.4654 N.ar    1  UNL1       -0.2186
     15 C         141.8119  141.2593  167.3446 C.ar    1  UNL1        0.2274
     16 C         141.7890  141.8500  165.9660 C.2     1  UNL1        0.3476
     17 N         142.9150  142.7287  165.5078 N.pl3   1  UNL1       -0.2439
     18 N         140.6402  141.5619  165.0456 N.2     1  UNL1       -0.0653
     19 H         143.6691  142.9178  166.1119 H       1  UNL1        0.2885
     20 H         142.9000  143.1164  164.6030 H       1  UNL1        0.2885
     21 N         139.2607  139.5112  160.4479 N.am    1  UNL1       -0.2791
     22 C         140.6578  139.4870  159.9024 C.2     1  UNL1        0.2672
     23 O         141.7110  140.3736  160.4980 O.2     1  UNL1       -0.2682
     24 H         138.5695  138.9293  160.0569 H       1  UNL1        0.1552
     25 C         141.0018  138.5763  158.7611 C.ar    1  UNL1        0.1348
     26 C         139.9554  138.2135  157.7496 C.ar    1  UNL1        0.0245
     27 C         140.2993  137.3028  156.6084 C.ar    1  UNL1        0.0135
     28 C         141.6896  136.7549  156.4788 C.ar    1  UNL1        0.0876
     29 C         142.7360  137.1177  157.4905 C.ar    1  UNL1        0.1092
     30 N         142.3921  138.0284  158.6317 N.ar    1  UNL1       -0.2385
     31 C         142.0336  135.8442  155.3376 C.1     1  UNL1        0.1020
     32 N         142.3775  134.9335  154.1964 N.1     1  UNL1       -0.1908
@<TRIPOS>BOND
     1     9     8    1
     2     9     1    1
     3     1     2   ar
     4     2     3   ar
     5     3    21    1
     6    21    22   am
     7    22    23    2
     8    22    25    1
     9    25    26   ar
    10    26    27   ar
    11    27    28   ar
    12    28    31    1
    13    31    32    3
    14    28    29   ar
    15    29    30   ar
    16     3     4   ar
    17     4     5   ar
    18     5     6   ar
    19     6     7    1
    20     9    10    1
    21    10    11    1
    22    11    12   ar
    23    12    13   ar
    24    13    14   ar
    25    14    15   ar
    26    15    16    1
    27    16    17    1
    28    16    18    2
    29    18     9    1
    30     6     1   ar
    31    15    11   ar
    32    30    25   ar
    33    21    24    1
    34    17    19    1
    35    17    20    1
@<TRIPOS>MOLECULE
*****
 32 35 0 0 0
SMALL
GASTEIGER

@<TRIPOS>ATOM
      1 C         139.6840  142.4809  164.0059 C.ar    1  UNL1        0.0522
      2 C         140.6874  142.1662  162.9364 C.ar    1  UNL1        0.0167
      3 C         140.3221  142.3371  161.4916 C.ar    1  UNL1        0.0505
      4 C         138.9533  142.8226  161.1165 C.ar    1  UNL1        0.0170
      5 C         137.9499  143.1374  162.1861 C.ar    1  UNL1        0.0307
      6 C         138.3153  142.9665  163.6309 C.ar    1  UNL1        0.1401
      7 F         137.3118  143.2812  164.7005 F       1  UNL1       -0.2044
      8 C         140.7105  143.6267  165.1689 C.3     1  UNL1        0.0601
      9 C         140.0493  142.3101  165.4508 C.3     1  UNL1        0.2163
     10 C         140.6442  142.5966  166.7977 C.3     1  UNL1        0.1608
     11 N         140.4511  141.6258  167.9247 N.ar    1  UNL1       -0.2996
     12 C         140.9153  141.6385  169.3510 C.ar    1  UNL1        0.0983
     13 C         140.4141  140.3891  170.0127 C.ar    1  UNL1        0.1194
     14 N         139.6402  139.6042  168.9953 N.ar    1  UNL1       -0.2186
     15 C         139.6631  140.3685  167.7049 C.ar    1  UNL1        0.2274
     16 C         139.0681  140.0821  166.3580 C.2     1  UNL1        0.3476
     17 N         138.2801  138.8249  166.1382 N.pl3   1  UNL1       -0.2439
     18 N         139.2613  141.0529  165.2310 N.2     1  UNL1       -0.0653
     19 H         138.1533  138.1877  166.8779 H       1  UNL1        0.2885
     20 H         137.8896  138.6369  165.2542 H       1  UNL1        0.2885
     21 N         141.3255  142.0223  160.4220 N.am    1  UNL1       -0.2791
     22 C         142.2860  143.0780  159.9605 C.2     1  UNL1        0.2672
     23 O         142.2430  144.4486  160.5686 O.2     1  UNL1       -0.2682
     24 H         141.3537  141.1228  160.0229 H       1  UNL1        0.1552
     25 C         143.2894  142.7632  158.8909 C.ar    1  UNL1        0.1348
     26 C         142.8258  142.3901  157.5141 C.ar    1  UNL1        0.0245
     27 C         143.8293  142.0753  156.4445 C.ar    1  UNL1        0.0135
     28 C         145.2963  142.1337  156.7518 C.ar    1  UNL1        0.0876
     29 C         145.7598  142.5069  158.1287 C.ar    1  UNL1        0.1092
     30 N         144.7565  142.8217  159.1983 N.ar    1  UNL1       -0.2385
     31 C         146.2998  141.8189  155.6822 C.1     1  UNL1        0.1020
     32 N         147.3032  141.5041  154.6126 N.1     1  UNL1       -0.1908
@<TRIPOS>BOND
     1     9     8    1
     2     9     1    1
     3     1     2   ar
     4     2     3   ar
     5     3    21    1
     6    21    22   am
     7    22    23    2
     8    22    25    1
     9    25    26   ar
    10    26    27   ar
    11    27    28   ar
    12    28    31    1
    13    31    32    3
    14    28    29   ar
    15    29    30   ar
    16     3     4   ar
    17     4     5   ar
    18     5     6   ar
    19     6     7    1
    20     9    10    1
    21    10    11    1
    22    11    12   ar
    23    12    13   ar
    24    13    14   ar
    25    14    15   ar
    26    15    16    1
    27    16    17    1
    28    16    18    2
    29    18     9    1
    30     6     1   ar
    31    15    11   ar
    32    30    25   ar
    33    21    24    1
    34    17    19    1
    35    17    20    1
@<TRIPOS>MOLECULE
*****
 32 35 0 0 0
SMALL
GASTEIGER

@<TRIPOS>ATOM
      1 C         141.8016  138.9431  164.5251 C.ar    1  UNL1        0.0522
      2 C         142.6521  139.3334  163.3528 C.ar    1  UNL1        0.0167
      3 C         142.3075  138.8399  161.9788 C.ar    1  UNL1        0.0505
      4 C         141.1123  137.9562  161.7772 C.ar    1  UNL1        0.0170
      5 C         140.2618  137.5659  162.9496 C.ar    1  UNL1        0.0307
      6 C         140.6065  138.0594  164.3235 C.ar    1  UNL1        0.1401
      7 F         139.7560  137.6692  165.4959 F       1  UNL1       -0.2044
      8 C         142.9939  138.2001  165.8462 C.3     1  UNL1        0.0601
      9 C         142.1462  139.4366  165.8991 C.3     1  UNL1        0.2163
     10 C         142.7853  139.5005  167.2547 C.3     1  UNL1        0.1608
     11 N         142.4570  140.6296  168.1860 N.ar    1  UNL1       -0.2996
     12 C         142.9265  140.9556  169.5728 C.ar    1  UNL1        0.0983
     13 C         142.2494  142.2221  170.0057 C.ar    1  UNL1        0.1194
     14 N         141.3614  142.6790  168.8864 N.ar    1  UNL1       -0.2186
     15 C         141.4897  141.6947  167.7618 C.ar    1  UNL1        0.2274
     16 C         140.8507  141.6307  166.4062 C.2     1  UNL1        0.3476
     17 N         139.8834  142.6958  165.9819 N.pl3   1  UNL1       -0.2439
     18 N         141.1790  140.5016  165.4749 N.2     1  UNL1       -0.0653
     19 H         139.6679  143.4368  166.5932 H       1  UNL1        0.2885
     20 H         139.4640  142.6537  165.0922 H       1  UNL1        0.2885
     21 N         143.1580  139.2302  160.8065 N.am    1  UNL1       -0.2791
     22 C         143.0094  140.5903  160.1918 C.2     1  UNL1        0.2672
     23 O         142.0103  141.5603  160.7494 O.2     1  UNL1       -0.2682
     24 H         143.8137  138.5935  160.4406 H       1  UNL1        0.1552
     25 C         143.8600  140.9806  159.0195 C.ar    1  UNL1        0.1348
     26 C         143.9006  140.1092  157.7994 C.ar    1  UNL1        0.0245
     27 C         144.7512  140.4994  156.6270 C.ar    1  UNL1        0.0135
     28 C         145.5611  141.7610  156.6750 C.ar    1  UNL1        0.0876
     29 C         145.5205  142.6324  157.8953 C.ar    1  UNL1        0.1092
     30 N         144.6699  142.2422  159.0676 N.ar    1  UNL1       -0.2385
     31 C         146.4117  142.1513  155.5027 C.1     1  UNL1        0.1020
     32 N         147.2622  142.5415  154.3304 N.1     1  UNL1       -0.1908
@<TRIPOS>BOND
     1     9     8    1
     2     9     1    1
     3     1     2   ar
     4     2     3   ar
     5     3    21    1
     6    21    22   am
     7    22    23    2
     8    22    25    1
     9    25    26   ar
    10    26    27   ar
    11    27    28   ar
    12    28    31    1
    13    31    32    3
    14    28    29   ar
    15    29    30   ar
    16     3     4   ar
    17     4     5   ar
    18     5     6   ar
    19     6     7    1
    20     9    10    1
    21    10    11    1
    22    11    12   ar
    23    12    13   ar
    24    13    14   ar
    25    14    15   ar
    26    15    16    1
    27    16    17    1
    28    16    18    2
    29    18     9    1
    30     6     1   ar
    31    15    11   ar
    32    30    25   ar
    33    21    24    1
    34    17    19    1
    35    17    20    1
