@<TRIPOS>MOLECULE
*****
 34 38 0 0 0
SMALL
GASTEIGER

@<TRIPOS>ATOM
      1 C         142.3063  142.5020  166.5253 C.ar    1  UNL1        0.0329
      2 C         143.6782  142.8393  167.0294 C.ar    1  UNL1        0.1001
      3 N         144.6882  143.4497  166.1035 N.ar    1  UNL1       -0.2420
      4 C         144.3263  143.7228  164.6737 C.ar    1  UNL1        0.1078
      5 C         142.9545  143.3854  164.1696 C.ar    1  UNL1        0.1207
      6 C         141.9444  142.7750  165.0955 C.ar    1  UNL1        0.0583
      7 C         142.5926  143.6584  162.7398 C.2     1  UNL1        0.3780
      8 N         141.6525  144.7224  162.2559 N.2     1  UNL1       -0.0308
      9 C         141.5862  144.6370  160.7598 C.2     1  UNL1        0.2318
     10 C         140.8232  145.4318  159.7419 C.2     1  UNL1        0.0456
     11 C         140.9595  145.1099  158.2832 C.2     1  UNL1       -0.0219
     12 C         140.1965  145.9047  157.2653 C.3     1  UNL1        0.0308
     13 C         141.8587  143.9932  157.8424 C.2     1  UNL1       -0.0214
     14 C         142.6217  143.1984  158.8603 C.3     1  UNL1        0.1034
     15 C         142.4854  143.5203  160.3190 C.2     1  UNL1        0.2178
     16 N         143.1074  142.9155  161.5427 N.2     1  UNL1       -0.0346
     17 N         140.5725  142.4376  164.5914 N.pl3   1  UNL1       -0.3071
     18 C         139.4200  143.3520  164.8843 C.3     1  UNL1        0.0921
     19 C         138.0481  143.0147  164.3803 C.3     1  UNL1        0.0369
     20 C         137.8286  141.7629  163.5834 C.3     1  UNL1        0.0542
     21 N         136.4567  141.4256  163.0794 N.3     1  UNL1       -0.3221
     22 C         138.9811  140.8485  163.2906 C.3     1  UNL1        0.0369
     23 C         140.3530  141.1859  163.7946 C.3     1  UNL1        0.0921
     24 H         135.8004  142.1509  163.3685 H       1  UNL1        0.1188
     25 H         136.1637  140.5282  163.4659 H       1  UNL1        0.1188
     26 C         139.5530  140.0368  167.9718 C.ar    1  UNL1        0.1410
     27 C         139.2760  140.6707  169.3028 C.ar    1  UNL1        0.0665
     28 C         140.0091  141.9150  169.7079 C.ar    1  UNL1        0.1432
     29 F         139.7321  142.5490  171.0388 F       1  UNL1       -0.2041
     30 C         141.0192  142.5255  168.7821 C.ar    1  UNL1        0.0299
     31 C         141.2962  141.8915  167.4512 C.ar    1  UNL1        0.0079
     32 C         140.5631  140.6472  167.0460 C.ar    1  UNL1        0.0371
     33 C         137.9843  138.7862  166.3208 C.3     1  UNL1        0.2525
     34 O         138.8199  138.7924  167.5666 O.3     1  UNL1       -0.4714
@<TRIPOS>BOND
     1    33    34    1
     2    34    26    1
     3    26    27   ar
     4    27    28   ar
     5    28    29    1
     6    28    30   ar
     7    30    31   ar
     8    31     1    1
     9     1     2   ar
    10     2     3   ar
    11     3     4   ar
    12     4     5   ar
    13     5     7    1
    14     7     8    2
    15     8     9    1
    16     9    10    2
    17    10    11    1
    18    11    12    1
    19    11    13    2
    20    13    14    1
    21    14    15    1
    22    15    16    2
    23     5     6   ar
    24     6    17    1
    25    17    18    1
    26    18    19    1
    27    19    20    1
    28    20    21    1
    29    20    22    1
    30    22    23    1
    31    31    32   ar
    32    32    26   ar
    33     6     1   ar
    34    23    17    1
    35    16     7    1
    36    15     9    1
    37    21    24    1
    38    21    25    1
@<TRIPOS>MOLECULE
*****
 34 38 0 0 0
SMALL
GASTEIGER

@<TRIPOS>ATOM
      1 C         139.6525  142.3108  161.5936 C.ar    1  UNL1        0.0329
      2 C         138.1581  142.3914  161.4926 C.ar    1  UNL1        0.1001
      3 N         137.3164  142.2917  162.7302 N.ar    1  UNL1       -0.2420
      4 C         137.9691  142.1113  164.0686 C.ar    1  UNL1        0.1078
      5 C         139.4635  142.0307  164.1696 C.ar    1  UNL1        0.1207
      6 C         140.3052  142.1304  162.9321 C.ar    1  UNL1        0.0583
      7 C         140.1161  141.8503  165.5080 C.2     1  UNL1        0.3780
      8 N         140.7305  140.5837  166.0259 N.2     1  UNL1       -0.0308
      9 C         141.2631  140.8554  167.4016 C.2     1  UNL1        0.2318
     10 C         141.9709  139.9819  168.3944 C.2     1  UNL1        0.0456
     11 C         142.3935  140.5430  169.7198 C.2     1  UNL1       -0.0219
     12 C         143.1014  139.6694  170.7128 C.3     1  UNL1        0.0308
     13 C         142.1082  141.9776  170.0522 C.2     1  UNL1       -0.0214
     14 C         141.4004  142.8511  169.0593 C.3     1  UNL1        0.1034
     15 C         140.9778  142.2900  167.7340 C.2     1  UNL1        0.2178
     16 N         140.2690  142.9049  166.5637 N.2     1  UNL1       -0.0346
     17 N         141.7997  142.0498  163.0330 N.pl3   1  UNL1       -0.3071
     18 C         142.4933  140.7317  162.8555 C.3     1  UNL1        0.0921
     19 C         143.9877  140.6510  162.9564 C.3     1  UNL1        0.0369
     20 C         144.7885  141.8884  163.2348 C.3     1  UNL1        0.0542
     21 N         146.2829  141.8078  163.3357 N.3     1  UNL1       -0.3221
     22 C         144.0949  143.2065  163.4123 C.3     1  UNL1        0.0369
     23 C         142.6004  143.2872  163.3114 C.3     1  UNL1        0.0921
     24 H         146.5820  140.8435  163.1898 H       1  UNL1        0.1188
     25 H         146.5786  142.1191  164.2609 H       1  UNL1        0.1188
     26 C         141.9285  143.8291  158.7188 C.ar    1  UNL1        0.1410
     27 C         142.1780  142.6101  157.8810 C.ar    1  UNL1        0.0665
     28 C         141.5856  141.2913  158.2808 C.ar    1  UNL1        0.1432
     29 F         141.8350  140.0723  157.4431 F       1  UNL1       -0.2041
     30 C         140.7438  141.1915  159.5184 C.ar    1  UNL1        0.0299
     31 C         140.4944  142.4105  160.3560 C.ar    1  UNL1        0.0079
     32 C         141.0867  143.7293  159.9562 C.ar    1  UNL1        0.0371
     33 C         141.9554  145.9010  157.1514 C.3     1  UNL1        0.2525
     34 O         142.5209  145.1479  158.3190 O.3     1  UNL1       -0.4714
@<TRIPOS>BOND
     1    33    34    1
     2    34    26    1
     3    26    27   ar
     4    27    28   ar
     5    28    29    1
     6    28    30   ar
     7    30    31   ar
     8    31     1    1
     9     1     2   ar
    10     2     3   ar
    11     3     4   ar
    12     4     5   ar
    13     5     7    1
    14     7     8    2
    15     8     9    1
    16     9    10    2
    17    10    11    1
    18    11    12    1
    19    11    13    2
    20    13    14    1
    21    14    15    1
    22    15    16    2
    23     5     6   ar
    24     6    17    1
    25    17    18    1
    26    18    19    1
    27    19    20    1
    28    20    21    1
    29    20    22    1
    30    22    23    1
    31    31    32   ar
    32    32    26   ar
    33     6     1   ar
    34    23    17    1
    35    16     7    1
    36    15     9    1
    37    21    24    1
    38    21    25    1
@<TRIPOS>MOLECULE
*****
 34 38 0 0 0
SMALL
GASTEIGER

@<TRIPOS>ATOM
      1 C         140.7351  138.7713  164.9760 C.ar    1  UNL1        0.0329
      2 C         141.1152  137.3508  164.6799 C.ar    1  UNL1        0.1001
      3 N         141.1508  136.8641  163.2615 N.ar    1  UNL1       -0.2420
      4 C         140.8063  137.7979  162.1393 C.ar    1  UNL1        0.1078
      5 C         140.4262  139.2184  162.4354 C.ar    1  UNL1        0.1207
      6 C         140.3906  139.7051  163.8538 C.ar    1  UNL1        0.0583
      7 C         140.0817  140.1522  161.3132 C.2     1  UNL1        0.3780
      8 N         138.9157  140.0162  160.3794 N.2     1  UNL1       -0.0308
      9 C         138.9561  141.1659  159.4168 C.2     1  UNL1        0.2318
     10 C         138.0623  141.5512  158.2756 C.2     1  UNL1        0.0456
     11 C         138.3595  142.7832  157.4732 C.2     1  UNL1       -0.0219
     12 C         137.4656  143.1686  156.3318 C.3     1  UNL1        0.0308
     13 C         139.5505  143.6298  157.8120 C.2     1  UNL1       -0.0214
     14 C         140.4443  143.2444  158.9533 C.3     1  UNL1        0.1034
     15 C         140.1471  142.0125  159.7557 C.2     1  UNL1        0.2178
     16 N         140.8428  141.3860  160.9277 N.2     1  UNL1       -0.0346
     17 N         140.0105  141.1256  164.1500 N.pl3   1  UNL1       -0.3071
     18 C         141.0771  142.1582  164.3645 C.3     1  UNL1        0.0921
     19 C         140.6970  143.5787  164.6607 C.3     1  UNL1        0.0369
     20 C         139.2503  143.9666  164.7424 C.3     1  UNL1        0.0542
     21 N         138.8702  145.3871  165.0387 N.3     1  UNL1       -0.3221
     22 C         138.1837  142.9340  164.5279 C.3     1  UNL1        0.0369
     23 C         138.5638  141.5134  164.2317 C.3     1  UNL1        0.0921
     24 H         139.7144  145.9477  165.1550 H       1  UNL1        0.1188
     25 H         138.3194  145.4198  165.8965 H       1  UNL1        0.1188
     26 C         141.9373  140.1294  168.5059 C.ar    1  UNL1        0.1410
     27 C         140.6282  140.2315  169.2312 C.ar    1  UNL1        0.0665
     28 C         139.3548  139.8469  168.5381 C.ar    1  UNL1        0.1432
     29 F         138.0458  139.9489  169.2633 F       1  UNL1       -0.2041
     30 C         139.3904  139.3601  167.1197 C.ar    1  UNL1        0.0299
     31 C         140.6994  139.2580  166.3944 C.ar    1  UNL1        0.0079
     32 C         141.9729  139.6427  167.0876 C.ar    1  UNL1        0.0371
     33 C         143.4268  141.9320  169.6382 C.3     1  UNL1        0.2525
     34 O         143.2107  140.5140  169.1991 O.3     1  UNL1       -0.4714
@<TRIPOS>BOND
     1    33    34    1
     2    34    26    1
     3    26    27   ar
     4    27    28   ar
     5    28    29    1
     6    28    30   ar
     7    30    31   ar
     8    31     1    1
     9     1     2   ar
    10     2     3   ar
    11     3     4   ar
    12     4     5   ar
    13     5     7    1
    14     7     8    2
    15     8     9    1
    16     9    10    2
    17    10    11    1
    18    11    12    1
    19    11    13    2
    20    13    14    1
    21    14    15    1
    22    15    16    2
    23     5     6   ar
    24     6    17    1
    25    17    18    1
    26    18    19    1
    27    19    20    1
    28    20    21    1
    29    20    22    1
    30    22    23    1
    31    31    32   ar
    32    32    26   ar
    33     6     1   ar
    34    23    17    1
    35    16     7    1
    36    15     9    1
    37    21    24    1
    38    21    25    1
@<TRIPOS>MOLECULE
*****
 34 38 0 0 0
SMALL
GASTEIGER

@<TRIPOS>ATOM
      1 C         142.0308  139.9296  166.8346 C.ar    1  UNL1        0.0329
      2 C         143.0881  138.8929  167.0736 C.ar    1  UNL1        0.1001
      3 N         143.8280  138.2949  165.9139 N.ar    1  UNL1       -0.2420
      4 C         143.5105  138.7338  164.5151 C.ar    1  UNL1        0.1078
      5 C         142.4533  139.7706  164.2760 C.ar    1  UNL1        0.1207
      6 C         141.7134  140.3685  165.4358 C.ar    1  UNL1        0.0583
      7 C         142.1358  140.2094  162.8772 C.2     1  UNL1        0.3780
      8 N         142.6754  141.4299  162.1922 N.2     1  UNL1       -0.0308
      9 C         142.0962  141.4796  160.8094 C.2     1  UNL1        0.2318
     10 C         142.2701  142.4546  159.6828 C.2     1  UNL1        0.0456
     11 C         141.5464  142.2397  158.3867 C.2     1  UNL1       -0.0219
     12 C         141.7202  143.2147  157.2600 C.3     1  UNL1        0.0308
     13 C         140.6488  141.0499  158.2171 C.2     1  UNL1       -0.0214
     14 C         140.4748  140.0750  159.3437 C.3     1  UNL1        0.1034
     15 C         141.1985  140.2899  160.6398 C.2     1  UNL1        0.2178
     16 N         141.2231  139.5048  161.9178 N.2     1  UNL1       -0.0346
     17 N         140.6561  141.4053  165.1967 N.pl3   1  UNL1       -0.3071
     18 C         141.0094  142.8623  165.2469 C.3     1  UNL1        0.0921
     19 C         139.9521  143.8991  165.0079 C.3     1  UNL1        0.0369
     20 C         138.5415  143.4790  164.7187 C.3     1  UNL1        0.0542
     21 N         137.4842  144.5158  164.4797 N.3     1  UNL1       -0.3221
     22 C         138.1881  142.0221  164.6685 C.3     1  UNL1        0.0369
     23 C         139.2455  140.9852  164.9075 C.3     1  UNL1        0.0921
     24 H         137.8975  145.4456  164.5512 H       1  UNL1        0.1188
     25 H         136.7470  144.4168  165.1777 H       1  UNL1        0.1188
     26 C         141.1271  142.3021  169.8849 C.ar    1  UNL1        0.1410
     27 C         139.8112  141.7236  170.3138 C.ar    1  UNL1        0.0665
     28 C         139.2352  140.5471  169.5829 C.ar    1  UNL1        0.1432
     29 F         137.9194  139.9687  170.0118 F       1  UNL1       -0.2041
     30 C         139.9751  139.9492  168.4232 C.ar    1  UNL1        0.0299
     31 C         141.2909  140.5276  167.9943 C.ar    1  UNL1        0.0079
     32 C         141.8669  141.7041  168.7252 C.ar    1  UNL1        0.0371
     33 C         143.1835  143.5715  170.8387 C.3     1  UNL1        0.2525
     34 O         141.7030  143.4785  170.6158 O.3     1  UNL1       -0.4714
@<TRIPOS>BOND
     1    33    34    1
     2    34    26    1
     3    26    27   ar
     4    27    28   ar
     5    28    29    1
     6    28    30   ar
     7    30    31   ar
     8    31     1    1
     9     1     2   ar
    10     2     3   ar
    11     3     4   ar
    12     4     5   ar
    13     5     7    1
    14     7     8    2
    15     8     9    1
    16     9    10    2
    17    10    11    1
    18    11    12    1
    19    11    13    2
    20    13    14    1
    21    14    15    1
    22    15    16    2
    23     5     6   ar
    24     6    17    1
    25    17    18    1
    26    18    19    1
    27    19    20    1
    28    20    21    1
    29    20    22    1
    30    22    23    1
    31    31    32   ar
    32    32    26   ar
    33     6     1   ar
    34    23    17    1
    35    16     7    1
    36    15     9    1
    37    21    24    1
    38    21    25    1
@<TRIPOS>MOLECULE
*****
 34 38 0 0 0
SMALL
GASTEIGER

@<TRIPOS>ATOM
      1 C         143.3818  141.7054  161.5291 C.ar    1  UNL1        0.0329
      2 C         144.8788  141.7822  161.4734 C.ar    1  UNL1        0.1001
      3 N         145.6772  141.7877  162.7432 N.ar    1  UNL1       -0.2420
      4 C         144.9786  141.7164  164.0687 C.ar    1  UNL1        0.1078
      5 C         143.4817  141.6396  164.1244 C.ar    1  UNL1        0.1207
      6 C         142.6833  141.6341  162.8546 C.ar    1  UNL1        0.0583
      7 C         142.7831  141.5683  165.4499 C.2     1  UNL1        0.3780
      8 N         142.0869  142.7025  166.1418 N.2     1  UNL1       -0.0308
      9 C         141.5316  142.1855  167.4357 C.2     1  UNL1        0.2318
     10 C         140.7501  142.8507  168.5297 C.2     1  UNL1        0.0456
     11 C         140.3217  142.0620  169.7315 C.2     1  UNL1       -0.0219
     12 C         139.5402  142.7271  170.8255 C.3     1  UNL1        0.0308
     13 C         140.6747  140.6081  169.8393 C.2     1  UNL1       -0.0214
     14 C         141.4562  139.9429  168.7453 C.3     1  UNL1        0.1034
     15 C         141.8846  140.7316  167.5436 C.2     1  UNL1        0.2178
     16 N         142.6581  140.3502  166.3162 N.2     1  UNL1       -0.0346
     17 N         141.1862  141.5573  162.9102 N.pl3   1  UNL1       -0.3071
     18 C         140.5037  140.2216  162.9209 C.3     1  UNL1        0.0921
     19 C         139.0067  140.1448  162.9765 C.3     1  UNL1        0.0369
     20 C         138.1922  141.4037  163.0215 C.3     1  UNL1        0.0542
     21 N         136.6952  141.3268  163.0771 N.3     1  UNL1       -0.3221
     22 C         138.8748  142.7393  163.0108 C.3     1  UNL1        0.0369
     23 C         140.3718  142.8161  162.9551 C.3     1  UNL1        0.0921
     24 H         136.4048  140.3491  163.0770 H       1  UNL1        0.1188
     25 H         136.3001  141.7990  162.2639 H       1  UNL1        0.1188
     26 C         141.3093  142.9879  158.3970 C.ar    1  UNL1        0.1410
     27 C         140.9864  141.6890  157.7196 C.ar    1  UNL1        0.0665
     28 C         141.4620  140.3956  158.3121 C.ar    1  UNL1        0.1432
     29 F         141.1391  139.0968  157.6347 F       1  UNL1       -0.2041
     30 C         142.2605  140.4011  159.5819 C.ar    1  UNL1        0.0299
     31 C         142.5834  141.6999  160.2592 C.ar    1  UNL1        0.0079
     32 C         142.1078  142.9933  159.6668 C.ar    1  UNL1        0.0371
     33 C         140.3948  145.4006  158.7015 C.3     1  UNL1        0.2525
     34 O         140.8338  144.2812  157.8045 O.3     1  UNL1       -0.4714
@<TRIPOS>BOND
     1    33    34    1
     2    34    26    1
     3    26    27   ar
     4    27    28   ar
     5    28    29    1
     6    28    30   ar
     7    30    31   ar
     8    31     1    1
     9     1     2   ar
    10     2     3   ar
    11     3     4   ar
    12     4     5   ar
    13     5     7    1
    14     7     8    2
    15     8     9    1
    16     9    10    2
    17    10    11    1
    18    11    12    1
    19    11    13    2
    20    13    14    1
    21    14    15    1
    22    15    16    2
    23     5     6   ar
    24     6    17    1
    25    17    18    1
    26    18    19    1
    27    19    20    1
    28    20    21    1
    29    20    22    1
    30    22    23    1
    31    31    32   ar
    32    32    26   ar
    33     6     1   ar
    34    23    17    1
    35    16     7    1
    36    15     9    1
    37    21    24    1
    38    21    25    1
@<TRIPOS>MOLECULE
*****
 34 38 0 0 0
SMALL
GASTEIGER

@<TRIPOS>ATOM
      1 C         142.6449  140.4599  164.9267 C.ar    1  UNL1        0.0329
      2 C         143.8673  139.6079  165.0994 C.ar    1  UNL1        0.1001
      3 N         144.7627  139.3346  163.9274 N.ar    1  UNL1       -0.2420
      4 C         144.4356  139.9133  162.5828 C.ar    1  UNL1        0.1078
      5 C         143.2133  140.7653  162.4101 C.ar    1  UNL1        0.1207
      6 C         142.3179  141.0386  163.5821 C.ar    1  UNL1        0.0583
      7 C         142.8863  141.3441  161.0654 C.2     1  UNL1        0.3780
      8 N         143.2889  142.7006  160.5678 N.2     1  UNL1       -0.0308
      9 C         142.7507  142.8628  159.1771 C.2     1  UNL1        0.2318
     10 C         142.8351  143.9922  158.1936 C.2     1  UNL1        0.0456
     11 C         142.1843  143.8652  156.8481 C.2     1  UNL1       -0.0219
     12 C         142.2687  144.9945  155.8645 C.3     1  UNL1        0.0308
     13 C         141.4490  142.6088  156.4862 C.2     1  UNL1       -0.0214
     14 C         141.3646  141.4795  157.4698 C.3     1  UNL1        0.1034
     15 C         142.0154  141.6065  158.8152 C.2     1  UNL1        0.2178
     16 N         142.0992  140.6678  159.9822 N.2     1  UNL1       -0.0346
     17 N         141.0955  141.8907  163.4094 N.pl3   1  UNL1       -0.3071
     18 C         139.7943  141.2625  163.0066 C.3     1  UNL1        0.0921
     19 C         138.5719  142.1144  162.8339 C.3     1  UNL1        0.0369
     20 C         138.6506  143.5946  163.0641 C.3     1  UNL1        0.0542
     21 N         137.4282  144.4466  162.8915 N.3     1  UNL1       -0.3221
     22 C         139.9518  144.2228  163.4670 C.3     1  UNL1        0.0369
     23 C         141.1743  143.3708  163.6396 C.3     1  UNL1        0.0921
     24 H         136.6403  143.8593  162.6180 H       1  UNL1        0.1188
     25 H         137.5996  145.1443  162.1675 H       1  UNL1        0.1188
     26 C         139.6927  140.1006  167.5546 C.ar    1  UNL1        0.1410
     27 C         139.9586  141.2798  168.4427 C.ar    1  UNL1        0.0665
     28 C         141.1200  142.1857  168.1589 C.ar    1  UNL1        0.1432
     29 F         141.3859  143.3649  169.0470 F       1  UNL1       -0.2041
     30 C         142.0154  141.9124  166.9869 C.ar    1  UNL1        0.0299
     31 C         141.7495  140.7332  166.0988 C.ar    1  UNL1        0.0079
     32 C         140.5881  139.8273  166.3826 C.ar    1  UNL1        0.0371
     33 C         137.8513  138.4721  166.7134 C.3     1  UNL1        0.2525
     34 O         138.5314  139.1946  167.8384 O.3     1  UNL1       -0.4714
@<TRIPOS>BOND
     1    33    34    1
     2    34    26    1
     3    26    27   ar
     4    27    28   ar
     5    28    29    1
     6    28    30   ar
     7    30    31   ar
     8    31     1    1
     9     1     2   ar
    10     2     3   ar
    11     3     4   ar
    12     4     5   ar
    13     5     7    1
    14     7     8    2
    15     8     9    1
    16     9    10    2
    17    10    11    1
    18    11    12    1
    19    11    13    2
    20    13    14    1
    21    14    15    1
    22    15    16    2
    23     5     6   ar
    24     6    17    1
    25    17    18    1
    26    18    19    1
    27    19    20    1
    28    20    21    1
    29    20    22    1
    30    22    23    1
    31    31    32   ar
    32    32    26   ar
    33     6     1   ar
    34    23    17    1
    35    16     7    1
    36    15     9    1
    37    21    24    1
    38    21    25    1
@<TRIPOS>MOLECULE
*****
 34 38 0 0 0
SMALL
GASTEIGER

@<TRIPOS>ATOM
      1 C         140.0298  139.7904  160.9213 C.ar    1  UNL1        0.0329
      2 C         138.6054  139.3620  160.7279 C.ar    1  UNL1        0.1001
      3 N         137.6915  139.2407  161.9110 N.ar    1  UNL1       -0.2420
      4 C         138.2020  139.5478  163.2877 C.ar    1  UNL1        0.1078
      5 C         139.6264  139.9762  163.4811 C.ar    1  UNL1        0.1207
      6 C         140.5403  140.0975  162.2979 C.ar    1  UNL1        0.0583
      7 C         140.1369  140.2833  164.8577 C.2     1  UNL1        0.3780
      8 N         140.9697  139.3745  165.7123 N.2     1  UNL1       -0.0308
      9 C         141.2517  140.0826  167.0042 C.2     1  UNL1        0.2318
     10 C         142.0231  139.6753  168.2245 C.2     1  UNL1        0.0456
     11 C         142.1359  140.6145  169.3886 C.2     1  UNL1       -0.0219
     12 C         142.9073  140.2072  170.6089 C.3     1  UNL1        0.0308
     13 C         141.4773  141.9610  169.3324 C.2     1  UNL1       -0.0214
     14 C         140.7059  142.3683  168.1122 C.3     1  UNL1        0.1034
     15 C         140.5931  141.4291  166.9481 C.2     1  UNL1        0.2178
     16 N         139.9041  141.5531  165.6215 N.2     1  UNL1       -0.0346
     17 N         141.9648  140.5260  162.4913 N.pl3   1  UNL1       -0.3071
     18 C         142.3126  141.9849  162.5142 C.3     1  UNL1        0.0921
     19 C         143.7370  142.4133  162.7076 C.3     1  UNL1        0.0369
     20 C         144.8137  141.3829  162.8781 C.3     1  UNL1        0.0542
     21 N         146.2381  141.8113  163.0715 N.3     1  UNL1       -0.3221
     22 C         144.4658  139.9239  162.8552 C.3     1  UNL1        0.0369
     23 C         143.0413  139.4955  162.6618 C.3     1  UNL1        0.0921
     24 H         146.2912  142.8299  163.0607 H       1  UNL1        0.1188
     25 H         146.8122  141.4329  162.3181 H       1  UNL1        0.1188
     26 C         142.5812  138.8245  158.0390 C.ar    1  UNL1        0.1410
     27 C         142.7718  140.1544  157.3717 C.ar    1  UNL1        0.0665
     28 C         142.0484  141.3629  157.8876 C.ar    1  UNL1        0.1432
     29 F         142.2390  142.6927  157.2204 F       1  UNL1       -0.2041
     30 C         141.1344  141.2416  159.0708 C.ar    1  UNL1        0.0299
     31 C         140.9438  139.9118  159.7381 C.ar    1  UNL1        0.0079
     32 C         141.6672  138.7032  159.2221 C.ar    1  UNL1        0.0371
     33 C         142.5424  136.5231  156.8339 C.3     1  UNL1        0.2525
     34 O         143.3046  137.6160  157.5230 O.3     1  UNL1       -0.4714
@<TRIPOS>BOND
     1    33    34    1
     2    34    26    1
     3    26    27   ar
     4    27    28   ar
     5    28    29    1
     6    28    30   ar
     7    30    31   ar
     8    31     1    1
     9     1     2   ar
    10     2     3   ar
    11     3     4   ar
    12     4     5   ar
    13     5     7    1
    14     7     8    2
    15     8     9    1
    16     9    10    2
    17    10    11    1
    18    11    12    1
    19    11    13    2
    20    13    14    1
    21    14    15    1
    22    15    16    2
    23     5     6   ar
    24     6    17    1
    25    17    18    1
    26    18    19    1
    27    19    20    1
    28    20    21    1
    29    20    22    1
    30    22    23    1
    31    31    32   ar
    32    32    26   ar
    33     6     1   ar
    34    23    17    1
    35    16     7    1
    36    15     9    1
    37    21    24    1
    38    21    25    1
@<TRIPOS>MOLECULE
*****
 34 38 0 0 0
SMALL
GASTEIGER

@<TRIPOS>ATOM
      1 C         142.2378  139.9828  160.2965 C.ar    1  UNL1        0.0329
      2 C         143.2373  138.8841  160.0872 C.ar    1  UNL1        0.1001
      3 N         143.5194  137.9070  161.1897 N.ar    1  UNL1       -0.2420
      4 C         142.8021  138.0286  162.5015 C.ar    1  UNL1        0.1078
      5 C         141.8027  139.1273  162.7107 C.ar    1  UNL1        0.1207
      6 C         141.5205  140.1044  161.6082 C.ar    1  UNL1        0.0583
      7 C         141.0854  139.2489  164.0225 C.2     1  UNL1        0.3780
      8 N         141.6108  139.9221  165.2556 N.2     1  UNL1       -0.0308
      9 C         140.5669  139.8080  166.3267 C.2     1  UNL1        0.2318
     10 C         140.5310  140.2852  167.7483 C.2     1  UNL1        0.0456
     11 C         139.3245  140.0186  168.5986 C.2     1  UNL1       -0.0219
     12 C         139.2886  140.4958  170.0203 C.3     1  UNL1        0.0308
     13 C         138.1538  139.2749  168.0274 C.2     1  UNL1       -0.0214
     14 C         138.1896  138.7977  166.6058 C.3     1  UNL1        0.1034
     15 C         139.3962  139.0642  165.7555 C.2     1  UNL1        0.2178
     16 N         139.7166  138.7187  164.3314 N.2     1  UNL1       -0.0346
     17 N         140.5210  141.2032  161.8174 N.pl3   1  UNL1       -0.3071
     18 C         140.9282  142.4633  162.5220 C.3     1  UNL1        0.0921
     19 C         139.9288  143.5621  162.7312 C.3     1  UNL1        0.0369
     20 C         138.5221  143.4008  162.2358 C.3     1  UNL1        0.0542
     21 N         137.5227  144.4996  162.4450 N.3     1  UNL1       -0.3221
     22 C         138.1149  142.1408  161.5312 C.3     1  UNL1        0.0369
     23 C         139.1144  141.0420  161.3220 C.3     1  UNL1        0.0921
     24 H         137.9675  145.2747  162.9366 H       1  UNL1        0.1188
     25 H         136.7422  144.1482  162.9998 H       1  UNL1        0.1188
     26 C         142.2543  143.3191  158.1472 C.ar    1  UNL1        0.1410
     27 C         141.3913  142.9144  156.9889 C.ar    1  UNL1        0.0665
     28 C         140.8105  141.5325  156.9332 C.ar    1  UNL1        0.1432
     29 F         139.9475  141.1278  155.7750 F       1  UNL1       -0.2041
     30 C         141.0927  140.5553  158.0357 C.ar    1  UNL1        0.0299
     31 C         141.9556  140.9600  159.1939 C.ar    1  UNL1        0.0079
     32 C         142.5364  142.3419  159.2496 C.ar    1  UNL1        0.0371
     33 C         142.0552  145.8645  157.6663 C.3     1  UNL1        0.2525
     34 O         142.8351  144.7009  158.2029 O.3     1  UNL1       -0.4714
@<TRIPOS>BOND
     1    33    34    1
     2    34    26    1
     3    26    27   ar
     4    27    28   ar
     5    28    29    1
     6    28    30   ar
     7    30    31   ar
     8    31     1    1
     9     1     2   ar
    10     2     3   ar
    11     3     4   ar
    12     4     5   ar
    13     5     7    1
    14     7     8    2
    15     8     9    1
    16     9    10    2
    17    10    11    1
    18    11    12    1
    19    11    13    2
    20    13    14    1
    21    14    15    1
    22    15    16    2
    23     5     6   ar
    24     6    17    1
    25    17    18    1
    26    18    19    1
    27    19    20    1
    28    20    21    1
    29    20    22    1
    30    22    23    1
    31    31    32   ar
    32    32    26   ar
    33     6     1   ar
    34    23    17    1
    35    16     7    1
    36    15     9    1
    37    21    24    1
    38    21    25    1
@<TRIPOS>MOLECULE
*****
 34 38 0 0 0
SMALL
GASTEIGER

@<TRIPOS>ATOM
      1 C         139.6276  142.3285  161.6143 C.ar    1  UNL1        0.0329
      2 C         138.1327  142.4119  161.5233 C.ar    1  UNL1        0.1001
      3 N         137.2989  142.3110  162.7661 N.ar    1  UNL1       -0.2420
      4 C         137.9600  142.1266  164.0998 C.ar    1  UNL1        0.1078
      5 C         139.4549  142.0431  164.1908 C.ar    1  UNL1        0.1207
      6 C         140.2886  142.1441  162.9480 C.ar    1  UNL1        0.0583
      7 C         140.1160  141.8587  165.5246 C.2     1  UNL1        0.3780
      8 N         140.7052  140.5823  166.0477 N.2     1  UNL1       -0.0308
      9 C         141.2573  140.8531  167.4158 C.2     1  UNL1        0.2318
     10 C         141.9538  139.9715  168.4096 C.2     1  UNL1        0.0456
     11 C         142.4023  140.5337  169.7259 C.2     1  UNL1       -0.0219
     12 C         143.0989  139.6521  170.7198 C.3     1  UNL1        0.0308
     13 C         142.1543  141.9775  170.0485 C.2     1  UNL1       -0.0214
     14 C         141.4578  142.8590  169.0547 C.3     1  UNL1        0.1034
     15 C         141.0093  142.2968  167.7384 C.2     1  UNL1        0.2178
     16 N         140.3039  142.9183  166.5695 N.2     1  UNL1       -0.0346
     17 N         141.7836  142.0607  163.0390 N.pl3   1  UNL1       -0.3071
     18 C         142.5925  143.3053  163.2550 C.3     1  UNL1        0.0921
     19 C         144.0874  143.2219  163.3459 C.3     1  UNL1        0.0369
     20 C         144.7735  141.8938  163.2209 C.3     1  UNL1        0.0542
     21 N         146.2683  141.8104  163.3118 N.3     1  UNL1       -0.3221
     22 C         143.9646  140.6492  163.0049 C.3     1  UNL1        0.0369
     23 C         142.4696  140.7326  162.9140 C.3     1  UNL1        0.0921
     24 H         146.6526  142.7438  163.4587 H       1  UNL1        0.1188
     25 H         146.6406  141.4220  162.4453 H       1  UNL1        0.1188
     26 C         141.6535  141.2911  158.3632 C.ar    1  UNL1        0.1410
     27 C         142.1291  142.6313  157.8859 C.ar    1  UNL1        0.0665
     28 C         141.7709  143.8705  158.6514 C.ar    1  UNL1        0.1432
     29 F         142.2465  145.2107  158.1741 F       1  UNL1       -0.2041
     30 C         140.9370  143.7696  159.8942 C.ar    1  UNL1        0.0299
     31 C         140.4614  142.4295  160.3714 C.ar    1  UNL1        0.0079
     32 C         140.8196  141.1902  159.6059 C.ar    1  UNL1        0.0371
     33 C         142.3742  138.7952  158.3321 C.3     1  UNL1        0.2525
     34 O         142.0117  140.0519  157.5977 O.3     1  UNL1       -0.4714
@<TRIPOS>BOND
     1    33    34    1
     2    34    26    1
     3    26    27   ar
     4    27    28   ar
     5    28    29    1
     6    28    30   ar
     7    30    31   ar
     8    31     1    1
     9     1     2   ar
    10     2     3   ar
    11     3     4   ar
    12     4     5   ar
    13     5     7    1
    14     7     8    2
    15     8     9    1
    16     9    10    2
    17    10    11    1
    18    11    12    1
    19    11    13    2
    20    13    14    1
    21    14    15    1
    22    15    16    2
    23     5     6   ar
    24     6    17    1
    25    17    18    1
    26    18    19    1
    27    19    20    1
    28    20    21    1
    29    20    22    1
    30    22    23    1
    31    31    32   ar
    32    32    26   ar
    33     6     1   ar
    34    23    17    1
    35    16     7    1
    36    15     9    1
    37    21    24    1
    38    21    25    1
