@<TRIPOS>MOLECULE
*****
 37 40 0 0 0
SMALL
GASTEIGER

@<TRIPOS>ATOM
      1 C         142.3185  142.2712  163.6908 C.3     1  UNL1        0.1753
      2 C         142.6519  142.6378  162.2750 C.ar    1  UNL1        0.0090
      3 C         143.7852  142.2414  161.3758 C.ar    1  UNL1       -0.0007
      4 C         143.8566  142.7795  159.9775 C.ar    1  UNL1        0.0156
      5 C         142.7947  143.7141  159.4784 C.ar    1  UNL1        0.0646
      6 C         141.6615  144.1105  160.3776 C.ar    1  UNL1        0.0201
      7 C         141.5901  143.5723  161.7759 C.ar    1  UNL1        0.0529
      8 C         140.6005  143.7833  162.8832 C.2     1  UNL1        0.2496
      9 O         139.3757  144.6468  162.8184 O.2     1  UNL1       -0.2699
     10 N         141.0507  142.9791  164.0667 N.am    1  UNL1       -0.2620
     11 N         142.9622  139.8702  164.4467 N.am    1  UNL1       -0.3059
     12 C         143.1135  141.3571  164.5754 C.2     1  UNL1        0.2448
     13 O         144.0597  141.9297  165.5886 O.2     1  UNL1       -0.2729
     14 H         142.3412  139.4943  163.7816 H       1  UNL1        0.1494
     15 C         144.9797  139.2171  164.5022 C.3     1  UNL1        0.0196
     16 C         143.7572  138.9561  165.3313 C.3     1  UNL1        0.0569
     17 C         142.5346  138.6952  166.1603 C.3     1  UNL1        0.0196
     18 C         144.5521  138.0421  166.2158 C.3     1  UNL1        0.0196
     19 N         142.8662  144.2522  158.0800 N.pl3   1  UNL1       -0.2187
     20 H         143.6311  144.0246  157.5035 H       1  UNL1        0.1734
     21 S         141.7724  145.1371  157.5602 S.O2    1  UNL1        0.0558
     22 C         140.6784  146.0221  157.0402 C.3     1  UNL1        0.1996
     23 O         142.5295  146.3459  158.0245 O.2     1  UNL1       -0.1544
     24 O         141.0152  143.9284  157.0958 O.2     1  UNL1       -0.1544
     25 C         140.3551  142.8973  165.3932 C.3     1  UNL1        0.1212
     26 C         139.6770  141.6251  165.8072 C.ar    1  UNL1       -0.0023
     27 C         138.7955  140.8950  164.8376 C.ar    1  UNL1       -0.0026
     28 C         138.1175  139.6228  165.2517 C.ar    1  UNL1       -0.0003
     29 C         138.3208  139.0805  166.6354 C.ar    1  UNL1       -0.0000
     30 C         139.2022  139.8104  167.6050 C.ar    1  UNL1       -0.0003
     31 C         139.8804  141.0828  167.1909 C.ar    1  UNL1       -0.0024
     32 C         140.7618  141.8127  168.1605 C.ar    1  UNL1       -0.0003
     33 C         140.1958  142.9159  169.0047 C.ar    1  UNL1       -0.0000
     34 C         141.0772  143.6459  169.9743 C.ar    1  UNL1       -0.0000
     35 C         142.5247  143.2727  170.0998 C.ar    1  UNL1       -0.0000
     36 C         143.0906  142.1695  169.2556 C.ar    1  UNL1       -0.0000
     37 C         142.2091  141.4395  168.2860 C.ar    1  UNL1       -0.0000
@<TRIPOS>BOND
     1    15    16    1
     2    16    17    1
     3    16    18    1
     4    16    11    1
     5    11    12   am
     6    12    13    2
     7    12     1    1
     8     1     2    1
     9     2     3   ar
    10     3     4   ar
    11     4     5   ar
    12     5    19    1
    13    19    21    1
    14    21    22    1
    15    21    23    2
    16    21    24    2
    17     5     6   ar
    18     6     7   ar
    19     7     8    1
    20     8     9    2
    21     8    10   am
    22    10    25    1
    23    25    26    1
    24    26    27   ar
    25    27    28   ar
    26    28    29   ar
    27    29    30   ar
    28    30    31   ar
    29    31    32    1
    30    32    33   ar
    31    33    34   ar
    32    34    35   ar
    33    35    36   ar
    34    36    37   ar
    35    10     1    1
    36    31    26   ar
    37    37    32   ar
    38     7     2   ar
    39    11    14    1
    40    19    20    1
@<TRIPOS>MOLECULE
*****
 37 40 0 0 0
SMALL
GASTEIGER

@<TRIPOS>ATOM
      1 C         138.9762  141.6506  164.0083 C.3     1  UNL1        0.1753
      2 C         139.4881  141.8434  165.4051 C.ar    1  UNL1        0.0090
      3 C         140.1036  143.0249  166.0943 C.ar    1  UNL1       -0.0007
      4 C         140.5280  142.9189  167.5291 C.ar    1  UNL1        0.0156
      5 C         140.3368  141.6314  168.2746 C.ar    1  UNL1        0.0646
      6 C         139.7213  140.4499  167.5854 C.ar    1  UNL1        0.0201
      7 C         139.2969  140.5559  166.1506 C.ar    1  UNL1        0.0529
      8 C         138.6668  139.5675  165.2146 C.2     1  UNL1        0.2496
      9 O         138.2995  138.1511  165.5447 O.2     1  UNL1       -0.2699
     10 N         138.4686  140.2440  163.8906 N.am    1  UNL1       -0.2620
     11 N         140.2644  143.2874  162.4553 N.am    1  UNL1       -0.3059
     12 C         138.9725  142.6832  162.9204 C.2     1  UNL1        0.2448
     13 O         137.6771  143.1118  162.2974 O.2     1  UNL1       -0.2729
     14 H         141.1146  143.0062  162.8642 H       1  UNL1        0.1494
     15 C         140.3757  143.2353  160.3376 C.3     1  UNL1        0.0196
     16 C         140.2607  144.3200  161.3673 C.3     1  UNL1        0.0569
     17 C         140.1456  145.4046  162.3971 C.3     1  UNL1        0.0196
     18 C         140.2570  145.3525  160.2794 C.3     1  UNL1        0.0196
     19 N         140.7612  141.5255  169.7095 N.pl3   1  UNL1       -0.2187
     20 H         140.2718  140.9332  170.3251 H       1  UNL1        0.1734
     21 S         141.9311  142.3219  170.2063 S.O2    1  UNL1        0.0558
     22 C         143.1010  143.1185  170.7032 C.3     1  UNL1        0.1996
     23 O         142.8697  141.3406  169.5693 O.2     1  UNL1       -0.1544
     24 O         140.9924  143.3032  170.8434 O.2     1  UNL1       -0.1544
     25 C         137.8682  139.6231  162.6643 C.3     1  UNL1        0.1212
     26 C         138.5877  139.7094  161.3510 C.ar    1  UNL1       -0.0023
     27 C         137.8615  140.1850  160.1277 C.ar    1  UNL1       -0.0026
     28 C         138.5810  140.2713  158.8144 C.ar    1  UNL1       -0.0003
     29 C         140.0267  139.8820  158.7243 C.ar    1  UNL1       -0.0000
     30 C         140.7530  139.4063  159.9475 C.ar    1  UNL1       -0.0003
     31 C         140.0335  139.3200  161.2609 C.ar    1  UNL1       -0.0024
     32 C         140.7598  138.8444  162.4841 C.ar    1  UNL1       -0.0003
     33 C         141.7139  139.7593  163.1930 C.ar    1  UNL1       -0.0000
     34 C         142.4402  139.2837  164.4162 C.ar    1  UNL1       -0.0000
     35 C         142.2124  137.8931  164.9305 C.ar    1  UNL1       -0.0000
     36 C         141.2583  136.9782  164.2215 C.ar    1  UNL1       -0.0000
     37 C         140.5320  137.4539  162.9983 C.ar    1  UNL1       -0.0000
@<TRIPOS>BOND
     1    15    16    1
     2    16    17    1
     3    16    18    1
     4    16    11    1
     5    11    12   am
     6    12    13    2
     7    12     1    1
     8     1     2    1
     9     2     3   ar
    10     3     4   ar
    11     4     5   ar
    12     5    19    1
    13    19    21    1
    14    21    22    1
    15    21    23    2
    16    21    24    2
    17     5     6   ar
    18     6     7   ar
    19     7     8    1
    20     8     9    2
    21     8    10   am
    22    10    25    1
    23    25    26    1
    24    26    27   ar
    25    27    28   ar
    26    28    29   ar
    27    29    30   ar
    28    30    31   ar
    29    31    32    1
    30    32    33   ar
    31    33    34   ar
    32    34    35   ar
    33    35    36   ar
    34    36    37   ar
    35    10     1    1
    36    31    26   ar
    37    37    32   ar
    38     7     2   ar
    39    11    14    1
    40    19    20    1
@<TRIPOS>MOLECULE
*****
 37 40 0 0 0
SMALL
GASTEIGER

@<TRIPOS>ATOM
      1 C         141.4621  138.9848  163.6953 C.3     1  UNL1        0.1753
      2 C         141.1345  139.3277  165.1184 C.ar    1  UNL1        0.0090
      3 C         139.8396  139.6614  165.7978 C.ar    1  UNL1       -0.0007
      4 C         139.8202  139.9676  167.2661 C.ar    1  UNL1        0.0156
      5 C         141.0958  139.9401  168.0549 C.ar    1  UNL1        0.0646
      6 C         142.3907  139.6064  167.3754 C.ar    1  UNL1        0.0201
      7 C         142.4101  139.3002  165.9072 C.ar    1  UNL1        0.0529
      8 C         143.5260  138.9403  164.9716 C.2     1  UNL1        0.2496
      9 O         144.9736  138.8000  165.3386 O.2     1  UNL1       -0.2699
     10 N         142.9401  138.7454  163.6045 N.am    1  UNL1       -0.2620
     11 N         139.6989  140.1081  162.1527 N.am    1  UNL1       -0.3059
     12 C         140.4835  138.8968  162.5619 C.2     1  UNL1        0.2448
     13 O         140.2893  137.5977  161.8378 O.2     1  UNL1       -0.2729
     14 H         139.8264  140.9609  162.6279 H       1  UNL1        0.1494
     15 C         139.7651  140.5399  160.0768 C.3     1  UNL1        0.0196
     16 C         138.7203  140.0201  161.0193 C.3     1  UNL1        0.0569
     17 C         137.6755  139.5004  161.9618 C.3     1  UNL1        0.0196
     18 C         137.7417  139.9322  159.8860 C.3     1  UNL1        0.0196
     19 N         141.0763  140.2463  169.5232 N.pl3   1  UNL1       -0.2187
     20 H         141.4797  139.6160  170.1629 H       1  UNL1        0.1734
     21 S         140.4422  141.5128  170.0169 S.O2    1  UNL1        0.0558
     22 C         139.8082  142.7795  170.5106 C.3     1  UNL1        0.1996
     23 O         139.3351  140.7156  170.6403 O.2     1  UNL1       -0.1544
     24 O         141.5493  142.3101  169.3935 O.2     1  UNL1       -0.1544
     25 C         143.6990  138.3759  162.3645 C.3     1  UNL1        0.1212
     26 C         143.4778  139.1416  161.0938 C.ar    1  UNL1       -0.0023
     27 C         143.1615  138.4102  159.8228 C.ar    1  UNL1       -0.0026
     28 C         142.9403  139.1759  158.5521 C.ar    1  UNL1       -0.0003
     29 C         143.0353  140.6728  158.5522 C.ar    1  UNL1       -0.0000
     30 C         143.3515  141.4042  159.8231 C.ar    1  UNL1       -0.0003
     31 C         143.5727  140.6386  161.0939 C.ar    1  UNL1       -0.0024
     32 C         143.8889  141.3699  162.3647 C.ar    1  UNL1       -0.0003
     33 C         145.2905  141.3735  162.8992 C.ar    1  UNL1       -0.0000
     34 C         145.6067  142.1048  164.1701 C.ar    1  UNL1       -0.0000
     35 C         144.5213  142.8327  164.9065 C.ar    1  UNL1       -0.0000
     36 C         143.1198  142.8291  164.3720 C.ar    1  UNL1       -0.0000
     37 C         142.8036  142.0977  163.1011 C.ar    1  UNL1       -0.0000
@<TRIPOS>BOND
     1    15    16    1
     2    16    17    1
     3    16    18    1
     4    16    11    1
     5    11    12   am
     6    12    13    2
     7    12     1    1
     8     1     2    1
     9     2     3   ar
    10     3     4   ar
    11     4     5   ar
    12     5    19    1
    13    19    21    1
    14    21    22    1
    15    21    23    2
    16    21    24    2
    17     5     6   ar
    18     6     7   ar
    19     7     8    1
    20     8     9    2
    21     8    10   am
    22    10    25    1
    23    25    26    1
    24    26    27   ar
    25    27    28   ar
    26    28    29   ar
    27    29    30   ar
    28    30    31   ar
    29    31    32    1
    30    32    33   ar
    31    33    34   ar
    32    34    35   ar
    33    35    36   ar
    34    36    37   ar
    35    10     1    1
    36    31    26   ar
    37    37    32   ar
    38     7     2   ar
    39    11    14    1
    40    19    20    1
@<TRIPOS>MOLECULE
*****
 37 40 0 0 0
SMALL
GASTEIGER

@<TRIPOS>ATOM
      1 C         141.1985  141.7196  162.9582 C.3     1  UNL1        0.1753
      2 C         141.8946  142.2824  161.7545 C.ar    1  UNL1        0.0090
      3 C         143.3380  142.3006  161.3470 C.ar    1  UNL1       -0.0007
      4 C         143.7453  142.9513  160.0584 C.ar    1  UNL1        0.0156
      5 C         142.7092  143.5838  159.1773 C.ar    1  UNL1        0.0646
      6 C         141.2658  143.5656  159.5848 C.ar    1  UNL1        0.0201
      7 C         140.8585  142.9149  160.8734 C.ar    1  UNL1        0.0529
      8 C         139.5220  142.7430  161.5325 C.2     1  UNL1        0.2496
      9 O         138.2064  143.2252  160.9971 O.2     1  UNL1       -0.2699
     10 N         139.7322  142.0043  162.8210 N.am    1  UNL1       -0.2620
     11 N         142.6038  139.7239  163.8486 N.am    1  UNL1       -0.3059
     12 C         141.8537  140.9987  164.0988 C.2     1  UNL1        0.2448
     13 O         141.7590  141.5525  165.4895 O.2     1  UNL1       -0.2729
     14 H         142.6660  139.3604  162.9358 H       1  UNL1        0.1494
     15 C         141.9795  138.2684  165.2598 C.3     1  UNL1        0.0196
     16 C         143.2590  139.0030  164.9892 C.3     1  UNL1        0.0569
     17 C         144.5385  139.7377  164.7185 C.3     1  UNL1        0.0196
     18 C         143.9142  138.2822  166.1297 C.3     1  UNL1        0.0196
     19 N         143.1166  144.2345  157.8886 N.pl3   1  UNL1       -0.2187
     20 H         144.0240  144.0963  157.5327 H       1  UNL1        0.1734
     21 S         142.1414  145.0958  157.1422 S.O2    1  UNL1        0.0558
     22 C         141.1661  145.9571  156.3958 C.3     1  UNL1        0.1996
     23 O         142.4942  146.2580  158.0223 O.2     1  UNL1       -0.1544
     24 O         141.7885  143.9336  156.2621 O.2     1  UNL1       -0.1544
     25 C         138.6636  141.6181  163.8003 C.3     1  UNL1        0.1212
     26 C         138.6151  140.2215  164.3454 C.ar    1  UNL1       -0.0023
     27 C         138.5006  139.9970  165.8241 C.ar    1  UNL1       -0.0026
     28 C         138.4521  138.6005  166.3692 C.ar    1  UNL1       -0.0003
     29 C         138.5181  137.4282  165.4356 C.ar    1  UNL1       -0.0000
     30 C         138.6326  137.6526  163.9569 C.ar    1  UNL1       -0.0003
     31 C         138.6811  139.0493  163.4118 C.ar    1  UNL1       -0.0024
     32 C         138.7956  139.2736  161.9331 C.ar    1  UNL1       -0.0003
     33 C         137.6093  139.7595  161.1542 C.ar    1  UNL1       -0.0000
     34 C         137.7238  139.9838  159.6755 C.ar    1  UNL1       -0.0000
     35 C         139.0246  139.7224  158.9757 C.ar    1  UNL1       -0.0000
     36 C         140.2108  139.2366  159.7546 C.ar    1  UNL1       -0.0000
     37 C         140.0963  139.0122  161.2334 C.ar    1  UNL1       -0.0000
@<TRIPOS>BOND
     1    15    16    1
     2    16    17    1
     3    16    18    1
     4    16    11    1
     5    11    12   am
     6    12    13    2
     7    12     1    1
     8     1     2    1
     9     2     3   ar
    10     3     4   ar
    11     4     5   ar
    12     5    19    1
    13    19    21    1
    14    21    22    1
    15    21    23    2
    16    21    24    2
    17     5     6   ar
    18     6     7   ar
    19     7     8    1
    20     8     9    2
    21     8    10   am
    22    10    25    1
    23    25    26    1
    24    26    27   ar
    25    27    28   ar
    26    28    29   ar
    27    29    30   ar
    28    30    31   ar
    29    31    32    1
    30    32    33   ar
    31    33    34   ar
    32    34    35   ar
    33    35    36   ar
    34    36    37   ar
    35    10     1    1
    36    31    26   ar
    37    37    32   ar
    38     7     2   ar
    39    11    14    1
    40    19    20    1
@<TRIPOS>MOLECULE
*****
 37 40 0 0 0
SMALL
GASTEIGER

@<TRIPOS>ATOM
      1 C         140.6052  142.2365  163.5029 C.3     1  UNL1        0.1753
      2 C         140.3976  142.9506  162.2003 C.ar    1  UNL1        0.0090
      3 C         139.4604  142.6996  161.0563 C.ar    1  UNL1       -0.0007
      4 C         139.4807  143.6020  159.8583 C.ar    1  UNL1        0.0156
      5 C         140.4380  144.7555  159.8043 C.ar    1  UNL1        0.0646
      6 C         141.3752  145.0066  160.9483 C.ar    1  UNL1        0.0201
      7 C         141.3549  144.1041  162.1463 C.ar    1  UNL1        0.0529
      8 C         142.1542  144.1029  163.4156 C.2     1  UNL1        0.2496
      9 O         143.2283  145.0837  163.7820 O.2     1  UNL1       -0.2699
     10 N         141.6909  142.9486  164.2540 N.am    1  UNL1       -0.2620
     11 N         140.1424  139.6840  163.3590 N.am    1  UNL1       -0.3059
     12 C         139.8583  141.0233  163.9721 C.2     1  UNL1        0.2448
     13 O         138.8273  141.1491  165.0542 O.2     1  UNL1       -0.2729
     14 H         140.8191  139.6013  162.6487 H       1  UNL1        0.1494
     15 C         138.3721  138.6850  162.7526 C.3     1  UNL1        0.0196
     16 C         139.3955  138.4707  163.8282 C.3     1  UNL1        0.0569
     17 C         140.4189  138.2566  164.9037 C.3     1  UNL1        0.0196
     18 C         138.6485  137.2576  164.2973 C.3     1  UNL1        0.0196
     19 N         140.4582  145.6580  158.6063 N.pl3   1  UNL1       -0.2187
     20 H         139.8972  146.4668  158.5898 H       1  UNL1        0.1734
     21 S         141.3331  145.3280  157.4335 S.O2    1  UNL1        0.0558
     22 C         142.2081  144.9980  156.2605 C.3     1  UNL1        0.1996
     23 O         142.4519  146.1173  158.0460 O.2     1  UNL1       -0.1544
     24 O         140.2143  144.5388  156.8209 O.2     1  UNL1       -0.1544
     25 C         142.2203  142.5726  165.6062 C.3     1  UNL1        0.1212
     26 C         142.7425  141.1875  165.8485 C.ar    1  UNL1       -0.0023
     27 C         143.5371  140.4888  164.7852 C.ar    1  UNL1       -0.0026
     28 C         144.0592  139.1037  165.0275 C.ar    1  UNL1       -0.0003
     29 C         143.7869  138.4172  166.3331 C.ar    1  UNL1       -0.0000
     30 C         142.9924  139.1158  167.3964 C.ar    1  UNL1       -0.0003
     31 C         142.4701  140.5010  167.1541 C.ar    1  UNL1       -0.0024
     32 C         141.6756  141.1996  168.2174 C.ar    1  UNL1       -0.0003
     33 C         140.3167  140.6892  168.5954 C.ar    1  UNL1       -0.0000
     34 C         139.5222  141.3878  169.6587 C.ar    1  UNL1       -0.0000
     35 C         140.0865  142.5969  170.3440 C.ar    1  UNL1       -0.0000
     36 C         141.4454  143.1074  169.9660 C.ar    1  UNL1       -0.0000
     37 C         142.2400  142.4087  168.9026 C.ar    1  UNL1       -0.0000
@<TRIPOS>BOND
     1    15    16    1
     2    16    17    1
     3    16    18    1
     4    16    11    1
     5    11    12   am
     6    12    13    2
     7    12     1    1
     8     1     2    1
     9     2     3   ar
    10     3     4   ar
    11     4     5   ar
    12     5    19    1
    13    19    21    1
    14    21    22    1
    15    21    23    2
    16    21    24    2
    17     5     6   ar
    18     6     7   ar
    19     7     8    1
    20     8     9    2
    21     8    10   am
    22    10    25    1
    23    25    26    1
    24    26    27   ar
    25    27    28   ar
    26    28    29   ar
    27    29    30   ar
    28    30    31   ar
    29    31    32    1
    30    32    33   ar
    31    33    34   ar
    32    34    35   ar
    33    35    36   ar
    34    36    37   ar
    35    10     1    1
    36    31    26   ar
    37    37    32   ar
    38     7     2   ar
    39    11    14    1
    40    19    20    1
@<TRIPOS>MOLECULE
*****
 37 40 0 0 0
SMALL
GASTEIGER

@<TRIPOS>ATOM
      1 C         141.8596  140.9572  163.5965 C.3     1  UNL1        0.1753
      2 C         142.1719  141.1120  165.0554 C.ar    1  UNL1        0.0090
      3 C         142.4018  142.3233  165.9096 C.ar    1  UNL1       -0.0007
      4 C         142.7014  142.1647  167.3708 C.ar    1  UNL1        0.0156
      5 C         142.7712  140.7947  167.9777 C.ar    1  UNL1        0.0646
      6 C         142.5413  139.5834  167.1235 C.ar    1  UNL1        0.0201
      7 C         142.2417  139.7420  165.6623 C.ar    1  UNL1        0.0529
      8 C         141.9724  138.7406  164.5785 C.2     1  UNL1        0.2496
      9 O         141.9443  137.2499  164.7426 O.2     1  UNL1       -0.2699
     10 N         141.7363  139.4917  163.3017 N.am    1  UNL1       -0.2620
     11 N         140.6306  143.1060  162.8075 N.am    1  UNL1       -0.3059
     12 C         141.6988  142.0723  162.6062 C.2     1  UNL1        0.2448
     13 O         142.6061  142.1539  161.4146 O.2     1  UNL1       -0.2729
     14 H         140.0350  143.0526  163.5896 H       1  UNL1        0.1494
     15 C         139.5458  143.3647  161.0030 C.3     1  UNL1        0.0196
     16 C         140.4698  144.2211  161.8172 C.3     1  UNL1        0.0569
     17 C         141.3937  145.0775  162.6315 C.3     1  UNL1        0.0196
     18 C         140.3090  145.3362  160.8270 C.3     1  UNL1        0.0196
     19 N         143.0708  140.6362  169.4390 N.pl3   1  UNL1       -0.2187
     20 H         143.9559  140.3164  169.7281 H       1  UNL1        0.1734
     21 S         142.0219  140.9648  170.4596 S.O2    1  UNL1        0.0558
     22 C         140.9730  141.2934  171.4803 C.3     1  UNL1        0.1996
     23 O         141.3918  139.6206  170.2449 O.2     1  UNL1       -0.1544
     24 O         142.6520  142.3089  170.6744 O.2     1  UNL1       -0.1544
     25 C         141.4306  138.8839  161.9648 C.3     1  UNL1        0.1212
     26 C         140.2676  139.3853  161.1613 C.ar    1  UNL1       -0.0023
     27 C         140.4568  139.7601  159.7212 C.ar    1  UNL1       -0.0026
     28 C         139.2938  140.2615  158.9176 C.ar    1  UNL1       -0.0003
     29 C         137.9414  140.3883  159.5540 C.ar    1  UNL1       -0.0000
     30 C         137.7521  140.0136  160.9941 C.ar    1  UNL1       -0.0003
     31 C         138.9152  139.5121  161.7977 C.ar    1  UNL1       -0.0024
     32 C         138.7259  139.1374  163.2378 C.ar    1  UNL1       -0.0003
     33 C         138.7559  137.6948  163.6475 C.ar    1  UNL1       -0.0000
     34 C         138.5666  137.3201  165.0876 C.ar    1  UNL1       -0.0000
     35 C         138.3473  138.3880  166.1179 C.ar    1  UNL1       -0.0000
     36 C         138.3173  139.8307  165.7081 C.ar    1  UNL1       -0.0000
     37 C         138.5067  140.2053  164.2680 C.ar    1  UNL1       -0.0000
@<TRIPOS>BOND
     1    15    16    1
     2    16    17    1
     3    16    18    1
     4    16    11    1
     5    11    12   am
     6    12    13    2
     7    12     1    1
     8     1     2    1
     9     2     3   ar
    10     3     4   ar
    11     4     5   ar
    12     5    19    1
    13    19    21    1
    14    21    22    1
    15    21    23    2
    16    21    24    2
    17     5     6   ar
    18     6     7   ar
    19     7     8    1
    20     8     9    2
    21     8    10   am
    22    10    25    1
    23    25    26    1
    24    26    27   ar
    25    27    28   ar
    26    28    29   ar
    27    29    30   ar
    28    30    31   ar
    29    31    32    1
    30    32    33   ar
    31    33    34   ar
    32    34    35   ar
    33    35    36   ar
    34    36    37   ar
    35    10     1    1
    36    31    26   ar
    37    37    32   ar
    38     7     2   ar
    39    11    14    1
    40    19    20    1
@<TRIPOS>MOLECULE
*****
 37 40 0 0 0
SMALL
GASTEIGER

@<TRIPOS>ATOM
      1 C         141.5935  140.4102  162.1940 C.3     1  UNL1        0.1753
      2 C         140.9230  141.1875  161.1002 C.ar    1  UNL1        0.0090
      3 C         139.5576  141.0849  160.4879 C.ar    1  UNL1       -0.0007
      4 C         139.1583  142.0194  159.3846 C.ar    1  UNL1        0.0156
      5 C         140.1245  143.0564  158.8936 C.ar    1  UNL1        0.0646
      6 C         141.4900  143.1590  159.5060 C.ar    1  UNL1        0.0201
      7 C         141.8892  142.2245  160.6093 C.ar    1  UNL1        0.0529
      8 C         143.1568  142.0881  161.3996 C.2     1  UNL1        0.2496
      9 O         144.3905  142.9260  161.2388 O.2     1  UNL1       -0.2699
     10 N         142.9740  140.9668  162.3791 N.am    1  UNL1       -0.2620
     11 N         139.7640  139.5048  163.8014 N.am    1  UNL1       -0.3059
     12 C         140.9894  139.2755  162.9670 C.2     1  UNL1        0.2448
     13 O         141.6105  137.9116  162.9058 O.2     1  UNL1       -0.2729
     14 H         139.3563  140.4000  163.8417 H       1  UNL1        0.1494
     15 C         139.7298  138.9314  165.8435 C.3     1  UNL1        0.0196
     16 C         139.1600  138.3701  164.5744 C.3     1  UNL1        0.0569
     17 C         138.5902  137.8089  163.3054 C.3     1  UNL1        0.0196
     18 C         138.5559  137.2355  165.3474 C.3     1  UNL1        0.0196
     19 N         139.7252  143.9909  157.7903 N.pl3   1  UNL1       -0.2187
     20 H         138.8100  143.9629  157.4286 H       1  UNL1        0.1734
     21 S         140.7203  144.9679  157.2380 S.O2    1  UNL1        0.0558
     22 C         141.7155  145.9450  156.6856 C.3     1  UNL1        0.1996
     23 O         140.2393  146.0061  158.2079 O.2     1  UNL1       -0.1544
     24 O         141.2013  143.9298  156.2680 O.2     1  UNL1       -0.1544
     25 C         143.9929  140.4865  163.3696 C.3     1  UNL1        0.1212
     26 C         143.5969  140.2466  164.7963 C.ar    1  UNL1       -0.0023
     27 C         143.8129  138.8987  165.4181 C.ar    1  UNL1       -0.0026
     28 C         143.4169  138.6587  166.8448 C.ar    1  UNL1       -0.0003
     29 C         142.8048  139.7666  167.6498 C.ar    1  UNL1       -0.0000
     30 C         142.5888  141.1144  167.0281 C.ar    1  UNL1       -0.0003
     31 C         142.9848  141.3544  165.6013 C.ar    1  UNL1       -0.0024
     32 C         142.7688  142.7023  164.9796 C.ar    1  UNL1       -0.0003
     33 C         143.9365  143.6115  164.7354 C.ar    1  UNL1       -0.0000
     34 C         143.7205  144.9593  164.1136 C.ar    1  UNL1       -0.0000
     35 C         142.3366  145.3980  163.7361 C.ar    1  UNL1       -0.0000
     36 C         141.1688  144.4888  163.9803 C.ar    1  UNL1       -0.0000
     37 C         141.3849  143.1409  164.6021 C.ar    1  UNL1       -0.0000
@<TRIPOS>BOND
     1    15    16    1
     2    16    17    1
     3    16    18    1
     4    16    11    1
     5    11    12   am
     6    12    13    2
     7    12     1    1
     8     1     2    1
     9     2     3   ar
    10     3     4   ar
    11     4     5   ar
    12     5    19    1
    13    19    21    1
    14    21    22    1
    15    21    23    2
    16    21    24    2
    17     5     6   ar
    18     6     7   ar
    19     7     8    1
    20     8     9    2
    21     8    10   am
    22    10    25    1
    23    25    26    1
    24    26    27   ar
    25    27    28   ar
    26    28    29   ar
    27    29    30   ar
    28    30    31   ar
    29    31    32    1
    30    32    33   ar
    31    33    34   ar
    32    34    35   ar
    33    35    36   ar
    34    36    37   ar
    35    10     1    1
    36    31    26   ar
    37    37    32   ar
    38     7     2   ar
    39    11    14    1
    40    19    20    1
@<TRIPOS>MOLECULE
*****
 37 40 0 0 0
SMALL
GASTEIGER

@<TRIPOS>ATOM
      1 C         142.2015  141.7895  163.0913 C.3     1  UNL1        0.1753
      2 C         142.6317  141.8956  161.6582 C.ar    1  UNL1        0.0090
      3 C         142.5034  142.9995  160.6509 C.ar    1  UNL1       -0.0007
      4 C         143.0406  142.8143  159.2627 C.ar    1  UNL1        0.0156
      5 C         143.7061  141.5250  158.8819 C.ar    1  UNL1        0.0646
      6 C         143.8344  140.4211  159.8892 C.ar    1  UNL1        0.0201
      7 C         143.2972  140.6064  161.2774 C.ar    1  UNL1        0.0529
      8 C         143.2782  139.7035  162.4751 C.2     1  UNL1        0.2496
      9 O         143.8382  138.3135  162.5403 O.2     1  UNL1       -0.2699
     10 N         142.6011  140.4348  163.5962 N.am    1  UNL1       -0.2620
     11 N         139.9966  142.9060  163.8926 N.am    1  UNL1       -0.3059
     12 C         141.4957  142.8518  163.8808 C.2     1  UNL1        0.2448
     13 O         142.2887  143.8598  164.6586 O.2     1  UNL1       -0.2729
     14 H         139.4761  142.2444  163.3822 H       1  UNL1        0.1494
     15 C         139.2566  144.8481  163.4678 C.3     1  UNL1        0.0196
     16 C         139.2907  143.9683  164.6822 C.3     1  UNL1        0.0569
     17 C         139.3249  143.0884  165.8965 C.3     1  UNL1        0.0196
     18 C         138.5849  145.0305  165.4717 C.3     1  UNL1        0.0196
     19 N         144.2433  141.3398  157.4936 N.pl3   1  UNL1       -0.2187
     20 H         144.8924  141.9828  157.1271 H       1  UNL1        0.1734
     21 S         143.7915  140.1748  156.6638 S.O2    1  UNL1        0.0558
     22 C         143.3397  139.0097  155.8340 C.3     1  UNL1        0.1996
     23 O         142.3809  140.6817  156.7202 O.2     1  UNL1       -0.1544
     24 O         145.2020  139.6678  156.6075 O.2     1  UNL1       -0.1544
     25 C         142.3650  139.9043  164.9793 C.3     1  UNL1        0.1212
     26 C         140.9704  139.5919  165.4348 C.ar    1  UNL1       -0.0023
     27 C         139.9812  139.0039  164.4727 C.ar    1  UNL1       -0.0026
     28 C         138.5866  138.6915  164.9282 C.ar    1  UNL1       -0.0003
     29 C         138.1812  138.9671  166.3458 C.ar    1  UNL1       -0.0000
     30 C         139.1704  139.5551  167.3079 C.ar    1  UNL1       -0.0003
     31 C         140.5650  139.8675  166.8524 C.ar    1  UNL1       -0.0024
     32 C         141.5542  140.4556  167.8145 C.ar    1  UNL1       -0.0003
     33 C         142.1540  141.8034  167.5434 C.ar    1  UNL1       -0.0000
     34 C         143.1432  142.3914  168.5055 C.ar    1  UNL1       -0.0000
     35 C         143.5326  141.6316  169.7389 C.ar    1  UNL1       -0.0000
     36 C         142.9328  140.2837  170.0100 C.ar    1  UNL1       -0.0000
     37 C         141.9436  139.6957  169.0478 C.ar    1  UNL1       -0.0000
@<TRIPOS>BOND
     1    15    16    1
     2    16    17    1
     3    16    18    1
     4    16    11    1
     5    11    12   am
     6    12    13    2
     7    12     1    1
     8     1     2    1
     9     2     3   ar
    10     3     4   ar
    11     4     5   ar
    12     5    19    1
    13    19    21    1
    14    21    22    1
    15    21    23    2
    16    21    24    2
    17     5     6   ar
    18     6     7   ar
    19     7     8    1
    20     8     9    2
    21     8    10   am
    22    10    25    1
    23    25    26    1
    24    26    27   ar
    25    27    28   ar
    26    28    29   ar
    27    29    30   ar
    28    30    31   ar
    29    31    32    1
    30    32    33   ar
    31    33    34   ar
    32    34    35   ar
    33    35    36   ar
    34    36    37   ar
    35    10     1    1
    36    31    26   ar
    37    37    32   ar
    38     7     2   ar
    39    11    14    1
    40    19    20    1
@<TRIPOS>MOLECULE
*****
 37 40 0 0 0
SMALL
GASTEIGER

@<TRIPOS>ATOM
      1 C         141.6692  140.8775  162.3908 C.3     1  UNL1        0.1753
      2 C         142.0357  140.0465  161.1970 C.ar    1  UNL1        0.0090
      3 C         141.8428  138.5910  160.8898 C.ar    1  UNL1       -0.0007
      4 C         142.3238  138.0298  159.5846 C.ar    1  UNL1        0.0156
      5 C         142.9977  138.9241  158.5866 C.ar    1  UNL1        0.0646
      6 C         143.1906  140.3795  158.8937 C.ar    1  UNL1        0.0201
      7 C         142.7096  140.9407  160.1989 C.ar    1  UNL1        0.0529
      8 C         142.7596  142.3244  160.7759 C.2     1  UNL1        0.2496
      9 O         143.3491  143.5347  160.1143 O.2     1  UNL1       -0.2699
     10 N         142.1166  142.2854  162.1305 N.am    1  UNL1       -0.2620
     11 N         139.6104  139.7757  163.5299 N.am    1  UNL1       -0.3059
     12 C         140.9769  140.3868  163.6277 C.2     1  UNL1        0.2448
     13 O         141.6509  140.5071  164.9622 O.2     1  UNL1       -0.2729
     14 H         139.1680  139.6968  162.6540 H       1  UNL1        0.1494
     15 C         138.2682  140.6265  164.9351 C.3     1  UNL1        0.0196
     16 C         138.9180  139.2850  164.7668 C.3     1  UNL1        0.0569
     17 C         139.5680  137.9437  164.5984 C.3     1  UNL1        0.0196
     18 C         138.2257  138.7944  166.0036 C.3     1  UNL1        0.0196
     19 N         143.4787  138.3628  157.2813 N.pl3   1  UNL1       -0.2187
     20 H         143.8191  137.4401  157.2378 H       1  UNL1        0.1734
     21 S         143.4410  139.2074  156.0423 S.O2    1  UNL1        0.0558
     22 C         143.4033  140.0521  154.8032 C.3     1  UNL1        0.1996
     23 O         144.9341  139.3430  156.0893 O.2     1  UNL1       -0.1544
     24 O         141.9479  139.0718  155.9952 O.2     1  UNL1       -0.1544
     25 C         141.9503  143.4497  163.0614 C.3     1  UNL1        0.1212
     26 C         140.6014  143.7618  163.6386 C.ar    1  UNL1       -0.0023
     27 C         140.4037  143.7620  165.1256 C.ar    1  UNL1       -0.0026
     28 C         139.0548  144.0740  165.7028 C.ar    1  UNL1       -0.0003
     29 C         137.9036  144.3858  164.7930 C.ar    1  UNL1       -0.0000
     30 C         138.1013  144.3856  163.3062 C.ar    1  UNL1       -0.0003
     31 C         139.4502  144.0736  162.7289 C.ar    1  UNL1       -0.0024
     32 C         139.6479  144.0734  161.2420 C.ar    1  UNL1       -0.0003
     33 C         140.2868  145.2526  160.5702 C.ar    1  UNL1       -0.0000
     34 C         140.4845  145.2524  159.0833 C.ar    1  UNL1       -0.0000
     35 C         140.0433  144.0730  158.2682 C.ar    1  UNL1       -0.0000
     36 C         139.4044  142.8938  158.9400 C.ar    1  UNL1       -0.0000
     37 C         139.2067  142.8940  160.4270 C.ar    1  UNL1       -0.0000
@<TRIPOS>BOND
     1    15    16    1
     2    16    17    1
     3    16    18    1
     4    16    11    1
     5    11    12   am
     6    12    13    2
     7    12     1    1
     8     1     2    1
     9     2     3   ar
    10     3     4   ar
    11     4     5   ar
    12     5    19    1
    13    19    21    1
    14    21    22    1
    15    21    23    2
    16    21    24    2
    17     5     6   ar
    18     6     7   ar
    19     7     8    1
    20     8     9    2
    21     8    10   am
    22    10    25    1
    23    25    26    1
    24    26    27   ar
    25    27    28   ar
    26    28    29   ar
    27    29    30   ar
    28    30    31   ar
    29    31    32    1
    30    32    33   ar
    31    33    34   ar
    32    34    35   ar
    33    35    36   ar
    34    36    37   ar
    35    10     1    1
    36    31    26   ar
    37    37    32   ar
    38     7     2   ar
    39    11    14    1
    40    19    20    1
