@<TRIPOS>MOLECULE
*****
 27 30 0 0 0
SMALL
GASTEIGER

@<TRIPOS>ATOM
      1 C         142.4906  139.6021  166.8828 C.ar    1  UNL1        0.0842
      2 C         141.6289  140.8020  167.1427 C.ar    1  UNL1        0.0383
      3 C         141.3002  141.1985  168.5516 C.ar    1  UNL1        0.0855
      4 N         140.4385  142.3984  168.8115 N.ar    1  UNL1       -0.2437
      5 C         140.1099  142.7948  170.2203 C.ar    1  UNL1        0.0988
      6 C         140.6430  141.9912  171.3692 C.ar    1  UNL1        0.0208
      7 C         141.5047  140.7913  171.1094 C.ar    1  UNL1        0.0059
      8 C         141.8333  140.3949  169.7005 C.ar    1  UNL1        0.0491
      9 C         142.6950  139.1949  169.4406 C.ar    1  UNL1        0.1298
     10 N         143.0236  138.7985  168.0318 N.ar    1  UNL1       -0.2308
     11 C         143.8052  138.0164  161.2474 C.3     1  UNL1        0.0310
     12 C         143.4766  138.4129  162.6563 C.ar    1  UNL1       -0.0218
     13 C         142.1956  137.9516  163.2858 C.ar    1  UNL1       -0.0042
     14 C         141.8669  138.3480  164.6946 C.ar    1  UNL1        0.0012
     15 C         142.8192  139.2056  165.4739 C.ar    1  UNL1        0.0177
     16 C         144.1002  139.6669  164.8444 C.ar    1  UNL1        0.0012
     17 C         144.4289  139.2705  163.4356 C.ar    1  UNL1       -0.0042
     18 N         143.2281  138.3913  170.5896 N.pl3   1  UNL1       -0.3180
     19 H         143.1768  138.7483  171.5056 H       1  UNL1        0.1482
     20 C         143.8393  137.0439  170.3428 C.3     1  UNL1        0.0895
     21 C         144.6711  136.3914  171.4069 C.3     1  UNL1        0.0353
     22 C         145.7134  137.1859  172.1366 C.3     1  UNL1        0.0045
     23 C         146.5452  136.5334  173.2007 C.3     1  UNL1        0.0172
     24 C         146.3348  135.0864  173.5351 C.3     1  UNL1        0.0686
     25 N         145.2925  134.2919  172.8054 N.3     1  UNL1       -0.2974
     26 C         144.4607  134.9444  171.7413 C.3     1  UNL1        0.0702
     27 H         144.6450  133.9384  173.5098 H       1  UNL1        0.1232
@<TRIPOS>BOND
     1    11    12    1
     2    12    13   ar
     3    13    14   ar
     4    14    15   ar
     5    15     1    1
     6     1     2   ar
     7     2     3   ar
     8     3     4   ar
     9     4     5   ar
    10     5     6   ar
    11     6     7   ar
    12     7     8   ar
    13     8     9   ar
    14     9    18    1
    15    18    20    1
    16    21    20    1
    17    21    22    1
    18    22    23    1
    19    23    24    1
    20    24    25    1
    21    25    26    1
    22     9    10   ar
    23    15    16   ar
    24    16    17   ar
    25    17    12   ar
    26    10     1   ar
    27     8     3   ar
    28    26    21    1
    29    18    19    1
    30    25    27    1
@<TRIPOS>MOLECULE
*****
 27 30 0 0 0
SMALL
GASTEIGER

@<TRIPOS>ATOM
      1 C         139.9314  142.6346  166.1966 C.ar    1  UNL1        0.0842
      2 C         140.5392  143.1226  167.4781 C.ar    1  UNL1        0.0383
      3 C         140.5958  142.2182  168.6735 C.ar    1  UNL1        0.0855
      4 N         141.2036  142.7062  169.9551 N.ar    1  UNL1       -0.2437
      5 C         141.2601  141.8018  171.1504 C.ar    1  UNL1        0.0988
      6 C         140.7089  140.4094  171.0642 C.ar    1  UNL1        0.0208
      7 C         140.1011  139.9214  169.7826 C.ar    1  UNL1        0.0059
      8 C         140.0445  140.8258  168.5873 C.ar    1  UNL1        0.0491
      9 C         139.4367  140.3378  167.3057 C.ar    1  UNL1        0.1298
     10 N         139.3802  141.2422  166.1103 N.ar    1  UNL1       -0.2308
     11 C         139.7051  146.2521  161.4151 C.3     1  UNL1        0.0310
     12 C         139.7617  145.3477  162.6105 C.ar    1  UNL1       -0.0218
     13 C         138.5050  144.7194  163.1357 C.ar    1  UNL1       -0.0042
     14 C         138.5615  143.8151  164.3311 C.ar    1  UNL1        0.0012
     15 C         139.8748  143.5390  165.0012 C.ar    1  UNL1        0.0177
     16 C         141.1315  144.1673  164.4759 C.ar    1  UNL1        0.0012
     17 C         141.0750  145.0716  163.2805 C.ar    1  UNL1       -0.0042
     18 N         138.8855  138.9454  167.2194 N.pl3   1  UNL1       -0.3180
     19 H         138.9584  138.3385  167.9911 H       1  UNL1        0.1482
     20 C         138.2232  138.4778  165.9575 C.3     1  UNL1        0.0895
     21 C         139.0476  138.2051  164.7344 C.3     1  UNL1        0.0353
     22 C         140.3525  137.4756  164.8568 C.3     1  UNL1        0.0045
     23 C         141.1770  137.2030  163.6337 C.3     1  UNL1        0.0172
     24 C         140.6965  137.6598  162.2882 C.3     1  UNL1        0.0686
     25 N         139.3915  138.3893  162.1657 N.3     1  UNL1       -0.2974
     26 C         138.5671  138.6620  163.3888 C.3     1  UNL1        0.0702
     27 H         138.8073  137.8434  161.5325 H       1  UNL1        0.1232
@<TRIPOS>BOND
     1    11    12    1
     2    12    13   ar
     3    13    14   ar
     4    14    15   ar
     5    15     1    1
     6     1     2   ar
     7     2     3   ar
     8     3     4   ar
     9     4     5   ar
    10     5     6   ar
    11     6     7   ar
    12     7     8   ar
    13     8     9   ar
    14     9    18    1
    15    18    20    1
    16    21    20    1
    17    21    22    1
    18    22    23    1
    19    23    24    1
    20    24    25    1
    21    25    26    1
    22     9    10   ar
    23    15    16   ar
    24    16    17   ar
    25    17    12   ar
    26    10     1   ar
    27     8     3   ar
    28    26    21    1
    29    18    19    1
    30    25    27    1
@<TRIPOS>MOLECULE
*****
 27 30 0 0 0
SMALL
GASTEIGER

@<TRIPOS>ATOM
      1 C         139.3103  141.1221  165.7481 C.ar    1  UNL1        0.0842
      2 C         139.1672  139.7759  165.1022 C.ar    1  UNL1        0.0383
      3 C         138.6267  139.6670  163.7071 C.ar    1  UNL1        0.0855
      4 N         138.4835  138.3208  163.0613 N.ar    1  UNL1       -0.2437
      5 C         137.9431  138.2119  161.6663 C.ar    1  UNL1        0.0988
      6 C         137.5458  139.4492  160.9172 C.ar    1  UNL1        0.0208
      7 C         137.6889  140.7954  161.5631 C.ar    1  UNL1        0.0059
      8 C         138.2294  140.9043  162.9581 C.ar    1  UNL1        0.0491
      9 C         138.3725  142.2505  163.6040 C.ar    1  UNL1        0.1298
     10 N         138.9130  142.3594  164.9990 N.ar    1  UNL1       -0.2308
     11 C         141.4722  141.5578  171.3281 C.3     1  UNL1        0.0310
     12 C         140.9317  141.4489  169.9331 C.ar    1  UNL1       -0.0218
     13 C         140.1782  140.2213  169.5144 C.ar    1  UNL1       -0.0042
     14 C         139.6378  140.1123  168.1194 C.ar    1  UNL1        0.0012
     15 C         139.8508  141.2310  167.1431 C.ar    1  UNL1        0.0177
     16 C         140.6042  142.4586  167.5618 C.ar    1  UNL1        0.0012
     17 C         141.1447  142.5675  168.9568 C.ar    1  UNL1       -0.0042
     18 N         137.9752  143.4879  162.8549 N.pl3   1  UNL1       -0.3180
     19 H         137.2043  143.4666  162.2430 H       1  UNL1        0.1482
     20 C         138.7525  144.7576  163.0382 C.3     1  UNL1        0.0895
     21 C         140.2461  144.7492  162.9004 C.3     1  UNL1        0.0353
     22 C         141.1124  144.7819  164.1244 C.3     1  UNL1        0.0045
     23 C         142.6060  144.7735  163.9866 C.3     1  UNL1        0.0172
     24 C         143.2334  144.7323  162.6247 C.3     1  UNL1        0.0686
     25 N         142.3670  144.6996  161.4006 N.3     1  UNL1       -0.2974
     26 C         140.8734  144.7081  161.5384 C.3     1  UNL1        0.0702
     27 H         142.6108  143.8510  160.8899 H       1  UNL1        0.1232
@<TRIPOS>BOND
     1    11    12    1
     2    12    13   ar
     3    13    14   ar
     4    14    15   ar
     5    15     1    1
     6     1     2   ar
     7     2     3   ar
     8     3     4   ar
     9     4     5   ar
    10     5     6   ar
    11     6     7   ar
    12     7     8   ar
    13     8     9   ar
    14     9    18    1
    15    18    20    1
    16    21    20    1
    17    21    22    1
    18    22    23    1
    19    23    24    1
    20    24    25    1
    21    25    26    1
    22     9    10   ar
    23    15    16   ar
    24    16    17   ar
    25    17    12   ar
    26    10     1   ar
    27     8     3   ar
    28    26    21    1
    29    18    19    1
    30    25    27    1
@<TRIPOS>MOLECULE
*****
 27 30 0 0 0
SMALL
GASTEIGER

@<TRIPOS>ATOM
      1 C         139.9857  140.1474  165.2617 C.ar    1  UNL1        0.0842
      2 C         138.9003  140.5335  164.3011 C.ar    1  UNL1        0.0383
      3 C         138.8752  139.9447  162.9217 C.ar    1  UNL1        0.0855
      4 N         137.7897  140.3308  161.9611 N.ar    1  UNL1       -0.2437
      5 C         137.7647  139.7421  160.5817 C.ar    1  UNL1        0.0988
      6 C         138.8251  138.7673  160.1629 C.ar    1  UNL1        0.0208
      7 C         139.9105  138.3813  161.1235 C.ar    1  UNL1        0.0059
      8 C         139.9356  138.9700  162.5028 C.ar    1  UNL1        0.0491
      9 C         141.0210  138.5839  163.4635 C.ar    1  UNL1        0.1298
     10 N         141.0461  139.1726  164.8429 N.ar    1  UNL1       -0.2308
     11 C         140.0860  142.5021  170.7795 C.3     1  UNL1        0.0310
     12 C         140.0609  141.9134  169.4000 C.ar    1  UNL1       -0.0218
     13 C         140.5722  142.7089  168.2357 C.ar    1  UNL1       -0.0042
     14 C         140.5471  142.1203  166.8563 C.ar    1  UNL1        0.0012
     15 C         140.0108  140.7361  166.6412 C.ar    1  UNL1        0.0177
     16 C         139.4995  139.9406  167.8055 C.ar    1  UNL1        0.0012
     17 C         139.5246  140.5292  169.1849 C.ar    1  UNL1       -0.0042
     18 N         142.0814  137.6091  163.0447 N.pl3   1  UNL1       -0.3180
     19 H         142.0419  136.6755  163.3546 H       1  UNL1        0.1482
     20 C         143.2020  138.0568  162.1537 C.3     1  UNL1        0.0895
     21 C         143.9707  139.3019  162.4835 C.3     1  UNL1        0.0353
     22 C         144.6278  139.4446  163.8243 C.3     1  UNL1        0.0045
     23 C         145.3966  140.6897  164.1541 C.3     1  UNL1        0.0172
     24 C         145.5082  141.7921  163.1431 C.3     1  UNL1        0.0686
     25 N         144.8511  141.6495  161.8023 N.3     1  UNL1       -0.2974
     26 C         144.0823  140.4044  161.4725 C.3     1  UNL1        0.0702
     27 H         145.5883  141.7344  161.1025 H       1  UNL1        0.1232
@<TRIPOS>BOND
     1    11    12    1
     2    12    13   ar
     3    13    14   ar
     4    14    15   ar
     5    15     1    1
     6     1     2   ar
     7     2     3   ar
     8     3     4   ar
     9     4     5   ar
    10     5     6   ar
    11     6     7   ar
    12     7     8   ar
    13     8     9   ar
    14     9    18    1
    15    18    20    1
    16    21    20    1
    17    21    22    1
    18    22    23    1
    19    23    24    1
    20    24    25    1
    21    25    26    1
    22     9    10   ar
    23    15    16   ar
    24    16    17   ar
    25    17    12   ar
    26    10     1   ar
    27     8     3   ar
    28    26    21    1
    29    18    19    1
    30    25    27    1
@<TRIPOS>MOLECULE
*****
 27 30 0 0 0
SMALL
GASTEIGER

@<TRIPOS>ATOM
      1 C         142.2357  139.5197  165.4861 C.ar    1  UNL1        0.0842
      2 C         141.4213  138.8844  164.3985 C.ar    1  UNL1        0.0383
      3 C         141.9895  138.7508  163.0167 C.ar    1  UNL1        0.0855
      4 N         141.1750  138.1154  161.9290 N.ar    1  UNL1       -0.2437
      5 C         141.7432  137.9818  160.5473 C.ar    1  UNL1        0.0988
      6 C         143.1258  138.4837  160.2532 C.ar    1  UNL1        0.0208
      7 C         143.9403  139.1190  161.3408 C.ar    1  UNL1        0.0059
      8 C         143.3721  139.2526  162.7225 C.ar    1  UNL1        0.0491
      9 C         144.1865  139.8880  163.8102 C.ar    1  UNL1        0.1298
     10 N         143.6183  140.0216  165.1920 N.ar    1  UNL1       -0.2308
     11 C         139.9630  140.0541  171.0133 C.3     1  UNL1        0.0310
     12 C         140.5312  139.9205  169.6314 C.ar    1  UNL1       -0.0218
     13 C         141.9850  139.6011  169.4459 C.ar    1  UNL1       -0.0042
     14 C         142.5532  139.4676  168.0642 C.ar    1  UNL1        0.0012
     15 C         141.6675  139.6533  166.8679 C.ar    1  UNL1        0.0177
     16 C         140.2137  139.9727  167.0534 C.ar    1  UNL1        0.0012
     17 C         139.6455  140.1063  168.4352 C.ar    1  UNL1       -0.0042
     18 N         145.5692  140.3898  163.5161 N.pl3   1  UNL1       -0.3180
     19 H         146.2991  139.7512  163.3473 H       1  UNL1        0.1482
     20 C         145.8396  141.8648  163.4791 C.3     1  UNL1        0.0895
     21 C         144.7275  142.8238  163.1734 C.3     1  UNL1        0.0353
     22 C         144.0474  143.5632  164.2872 C.3     1  UNL1        0.0045
     23 C         142.9353  144.5223  163.9814 C.3     1  UNL1        0.0172
     24 C         142.5033  144.7419  162.5619 C.3     1  UNL1        0.0686
     25 N         143.1835  144.0024  161.4480 N.3     1  UNL1       -0.2974
     26 C         144.2956  143.0434  161.7537 C.3     1  UNL1        0.0702
     27 H         143.5671  144.7070  160.8180 H       1  UNL1        0.1232
@<TRIPOS>BOND
     1    11    12    1
     2    12    13   ar
     3    13    14   ar
     4    14    15   ar
     5    15     1    1
     6     1     2   ar
     7     2     3   ar
     8     3     4   ar
     9     4     5   ar
    10     5     6   ar
    11     6     7   ar
    12     7     8   ar
    13     8     9   ar
    14     9    18    1
    15    18    20    1
    16    21    20    1
    17    21    22    1
    18    22    23    1
    19    23    24    1
    20    24    25    1
    21    25    26    1
    22     9    10   ar
    23    15    16   ar
    24    16    17   ar
    25    17    12   ar
    26    10     1   ar
    27     8     3   ar
    28    26    21    1
    29    18    19    1
    30    25    27    1
@<TRIPOS>MOLECULE
*****
 27 30 0 0 0
SMALL
GASTEIGER

@<TRIPOS>ATOM
      1 C         141.3511  142.3052  165.6656 C.ar    1  UNL1        0.0842
      2 C         141.0132  142.4457  167.1202 C.ar    1  UNL1        0.0383
      3 C         141.4644  141.4025  168.0992 C.ar    1  UNL1        0.0855
      4 N         141.1264  141.5429  169.5538 N.ar    1  UNL1       -0.2437
      5 C         141.5776  140.4998  170.5326 C.ar    1  UNL1        0.0988
      6 C         142.3668  139.3162  170.0569 C.ar    1  UNL1        0.0208
      7 C         142.7048  139.1758  168.6022 C.ar    1  UNL1        0.0059
      8 C         142.2536  140.2189  167.6234 C.ar    1  UNL1        0.0491
      9 C         142.5916  140.0786  166.1687 C.ar    1  UNL1        0.1298
     10 N         142.1403  141.1217  165.1898 N.ar    1  UNL1       -0.2308
     11 C         139.5462  146.4778  161.7499 C.3     1  UNL1        0.0310
     12 C         139.9974  145.4346  162.7289 C.ar    1  UNL1       -0.0218
     13 C         141.4547  145.1006  162.8504 C.ar    1  UNL1       -0.0042
     14 C         141.9060  144.0575  163.8293 C.ar    1  UNL1        0.0012
     15 C         140.8999  143.3484  164.6866 C.ar    1  UNL1        0.0177
     16 C         139.4427  143.6825  164.5651 C.ar    1  UNL1        0.0012
     17 C         138.9914  144.7256  163.5862 C.ar    1  UNL1       -0.0042
     18 N         143.3808  138.8950  165.6929 N.pl3   1  UNL1       -0.3180
     19 H         143.0373  137.9838  165.8380 H       1  UNL1        0.1482
     20 C         144.6932  139.0997  164.9960 C.3     1  UNL1        0.0895
     21 C         144.7743  139.9998  163.7989 C.3     1  UNL1        0.0353
     22 C         143.9854  139.6787  162.5642 C.3     1  UNL1        0.0045
     23 C         144.0665  140.5788  161.3670 C.3     1  UNL1        0.0172
     24 C         144.9366  141.8000  161.4045 C.3     1  UNL1        0.0686
     25 N         145.7256  142.1212  162.6392 N.3     1  UNL1       -0.2974
     26 C         145.6445  141.2211  163.8364 C.3     1  UNL1        0.0702
     27 H         145.4279  143.0472  162.9463 H       1  UNL1        0.1232
@<TRIPOS>BOND
     1    11    12    1
     2    12    13   ar
     3    13    14   ar
     4    14    15   ar
     5    15     1    1
     6     1     2   ar
     7     2     3   ar
     8     3     4   ar
     9     4     5   ar
    10     5     6   ar
    11     6     7   ar
    12     7     8   ar
    13     8     9   ar
    14     9    18    1
    15    18    20    1
    16    21    20    1
    17    21    22    1
    18    22    23    1
    19    23    24    1
    20    24    25    1
    21    25    26    1
    22     9    10   ar
    23    15    16   ar
    24    16    17   ar
    25    17    12   ar
    26    10     1   ar
    27     8     3   ar
    28    26    21    1
    29    18    19    1
    30    25    27    1
@<TRIPOS>MOLECULE
*****
 27 30 0 0 0
SMALL
GASTEIGER

@<TRIPOS>ATOM
      1 C         140.7404  139.9526  165.6645 C.ar    1  UNL1        0.0842
      2 C         142.1106  139.9696  165.0545 C.ar    1  UNL1        0.0383
      3 C         142.3695  139.2372  163.7713 C.ar    1  UNL1        0.0855
      4 N         143.7397  139.2542  163.1613 N.ar    1  UNL1       -0.2437
      5 C         143.9985  138.5218  161.8781 C.ar    1  UNL1        0.0988
      6 C         142.8871  137.7724  161.2049 C.ar    1  UNL1        0.0208
      7 C         141.5169  137.7554  161.8150 C.ar    1  UNL1        0.0059
      8 C         141.2581  138.4878  163.0981 C.ar    1  UNL1        0.0491
      9 C         139.8878  138.4708  163.7082 C.ar    1  UNL1        0.1298
     10 N         139.6290  139.2032  164.9914 N.ar    1  UNL1       -0.2308
     11 C         139.7051  142.8823  170.7973 C.3     1  UNL1        0.0310
     12 C         139.9639  142.1499  169.5141 C.ar    1  UNL1       -0.0218
     13 C         139.5430  140.7174  169.3701 C.ar    1  UNL1       -0.0042
     14 C         139.8019  139.9850  168.0870 C.ar    1  UNL1        0.0012
     15 C         140.4816  140.6851  166.9478 C.ar    1  UNL1        0.0177
     16 C         140.9024  142.1176  167.0917 C.ar    1  UNL1        0.0012
     17 C         140.6436  142.8500  168.3749 C.ar    1  UNL1       -0.0042
     18 N         138.7764  137.7214  163.0351 N.pl3   1  UNL1       -0.3180
     19 H         138.5932  136.7861  163.2819 H       1  UNL1        0.1482
     20 C         137.9441  138.3970  161.9859 C.3     1  UNL1        0.0895
     21 C         138.0809  139.8728  161.7554 C.3     1  UNL1        0.0353
     22 C         138.9335  140.3804  160.6305 C.3     1  UNL1        0.0045
     23 C         139.0703  141.8563  160.4000 C.3     1  UNL1        0.0172
     24 C         138.3545  142.8246  161.2945 C.3     1  UNL1        0.0686
     25 N         137.5019  142.3170  162.4194 N.3     1  UNL1       -0.2974
     26 C         137.3651  140.8411  162.6499 C.3     1  UNL1        0.0702
     27 H         136.5613  142.6790  162.2625 H       1  UNL1        0.1232
@<TRIPOS>BOND
     1    11    12    1
     2    12    13   ar
     3    13    14   ar
     4    14    15   ar
     5    15     1    1
     6     1     2   ar
     7     2     3   ar
     8     3     4   ar
     9     4     5   ar
    10     5     6   ar
    11     6     7   ar
    12     7     8   ar
    13     8     9   ar
    14     9    18    1
    15    18    20    1
    16    21    20    1
    17    21    22    1
    18    22    23    1
    19    23    24    1
    20    24    25    1
    21    25    26    1
    22     9    10   ar
    23    15    16   ar
    24    16    17   ar
    25    17    12   ar
    26    10     1   ar
    27     8     3   ar
    28    26    21    1
    29    18    19    1
    30    25    27    1
@<TRIPOS>MOLECULE
*****
 27 30 0 0 0
SMALL
GASTEIGER

@<TRIPOS>ATOM
      1 C         140.9630  138.9304  163.5924 C.ar    1  UNL1        0.0842
      2 C         140.5319  139.0028  162.1575 C.ar    1  UNL1        0.0383
      3 C         141.5494  139.2315  161.0793 C.ar    1  UNL1        0.0855
      4 N         141.1183  139.3040  159.6444 N.ar    1  UNL1       -0.2437
      5 C         142.1358  139.5327  158.5663 C.ar    1  UNL1        0.0988
      6 C         143.5844  139.6890  158.9231 C.ar    1  UNL1        0.0208
      7 C         144.0155  139.6166  160.3579 C.ar    1  UNL1        0.0059
      8 C         142.9980  139.3878  161.4360 C.ar    1  UNL1        0.0491
      9 C         143.4290  139.3154  162.8710 C.ar    1  UNL1        0.1298
     10 N         142.4116  139.0866  163.9491 N.ar    1  UNL1       -0.2308
     11 C         136.8931  138.0153  167.9051 C.3     1  UNL1        0.0310
     12 C         137.9106  138.2441  166.8269 C.ar    1  UNL1       -0.0218
     13 C         138.6827  139.5295  166.7847 C.ar    1  UNL1       -0.0042
     14 C         139.7001  139.7582  165.7066 C.ar    1  UNL1        0.0012
     15 C         139.9455  138.7016  164.6706 C.ar    1  UNL1        0.0177
     16 C         139.1735  137.4162  164.7127 C.ar    1  UNL1        0.0012
     17 C         138.1561  137.1875  165.7909 C.ar    1  UNL1       -0.0042
     18 N         144.8776  139.4717  163.2277 N.pl3   1  UNL1       -0.3180
     19 H         145.5392  138.8227  162.8956 H       1  UNL1        0.1482
     20 C         145.3182  140.6168  164.0906 C.3     1  UNL1        0.0895
     21 C         144.8833  142.0142  163.7619 C.3     1  UNL1        0.0353
     22 C         144.2986  142.8888  164.8311 C.3     1  UNL1        0.0045
     23 C         143.8638  144.2863  164.5024 C.3     1  UNL1        0.0172
     24 C         144.0135  144.8091  163.1045 C.3     1  UNL1        0.0686
     25 N         144.5982  143.9345  162.0352 N.3     1  UNL1       -0.2974
     26 C         145.0331  142.5371  162.3639 C.3     1  UNL1        0.0702
     27 H         145.4185  144.4206  161.6730 H       1  UNL1        0.1232
@<TRIPOS>BOND
     1    11    12    1
     2    12    13   ar
     3    13    14   ar
     4    14    15   ar
     5    15     1    1
     6     1     2   ar
     7     2     3   ar
     8     3     4   ar
     9     4     5   ar
    10     5     6   ar
    11     6     7   ar
    12     7     8   ar
    13     8     9   ar
    14     9    18    1
    15    18    20    1
    16    21    20    1
    17    21    22    1
    18    22    23    1
    19    23    24    1
    20    24    25    1
    21    25    26    1
    22     9    10   ar
    23    15    16   ar
    24    16    17   ar
    25    17    12   ar
    26    10     1   ar
    27     8     3   ar
    28    26    21    1
    29    18    19    1
    30    25    27    1
@<TRIPOS>MOLECULE
*****
 27 30 0 0 0
SMALL
GASTEIGER

@<TRIPOS>ATOM
      1 C         141.2692  139.3845  165.3029 C.ar    1  UNL1        0.0842
      2 C         142.5684  138.9956  164.6621 C.ar    1  UNL1        0.0383
      3 C         142.6186  138.6883  163.1947 C.ar    1  UNL1        0.0855
      4 N         143.9178  138.2993  162.5538 N.ar    1  UNL1       -0.2437
      5 C         143.9679  137.9920  161.0865 C.ar    1  UNL1        0.0988
      6 C         142.7188  138.0737  160.2601 C.ar    1  UNL1        0.0208
      7 C         141.4196  138.4626  160.9009 C.ar    1  UNL1        0.0059
      8 C         141.3695  138.7699  162.3682 C.ar    1  UNL1        0.0491
      9 C         140.0702  139.1589  163.0091 C.ar    1  UNL1        0.1298
     10 N         140.0201  139.4662  164.4764 N.ar    1  UNL1       -0.2308
     11 C         141.0687  140.6137  171.1722 C.3     1  UNL1        0.0310
     12 C         141.1189  140.3064  169.7049 C.ar    1  UNL1       -0.0218
     13 C         139.8851  140.4555  168.8648 C.ar    1  UNL1       -0.0042
     14 C         139.9352  140.1482  167.3975 C.ar    1  UNL1        0.0012
     15 C         141.2191  139.6919  166.7703 C.ar    1  UNL1        0.0177
     16 C         142.4528  139.5428  167.6103 C.ar    1  UNL1        0.0012
     17 C         142.4027  139.8501  169.0776 C.ar    1  UNL1       -0.0042
     18 N         138.8211  139.2406  162.1826 N.pl3   1  UNL1       -0.3180
     19 H         138.7589  138.7449  161.3343 H       1  UNL1        0.1482
     20 C         137.6668  140.0774  162.6487 C.3     1  UNL1        0.0895
     21 C         137.8247  141.5627  162.7866 C.3     1  UNL1        0.0353
     22 C         137.7075  142.2073  164.1360 C.3     1  UNL1        0.0045
     23 C         137.8654  143.6925  164.2739 C.3     1  UNL1        0.0172
     24 C         138.1404  144.5332  163.0625 C.3     1  UNL1        0.0686
     25 N         138.2576  143.8887  161.7131 N.3     1  UNL1       -0.2974
     26 C         138.0997  142.4034  161.5752 C.3     1  UNL1        0.0702
     27 H         139.1842  144.1208  161.3554 H       1  UNL1        0.1232
@<TRIPOS>BOND
     1    11    12    1
     2    12    13   ar
     3    13    14   ar
     4    14    15   ar
     5    15     1    1
     6     1     2   ar
     7     2     3   ar
     8     3     4   ar
     9     4     5   ar
    10     5     6   ar
    11     6     7   ar
    12     7     8   ar
    13     8     9   ar
    14     9    18    1
    15    18    20    1
    16    21    20    1
    17    21    22    1
    18    22    23    1
    19    23    24    1
    20    24    25    1
    21    25    26    1
    22     9    10   ar
    23    15    16   ar
    24    16    17   ar
    25    17    12   ar
    26    10     1   ar
    27     8     3   ar
    28    26    21    1
    29    18    19    1
    30    25    27    1
