@<TRIPOS>MOLECULE
*****
 35 38 0 0 0
SMALL
GASTEIGER

@<TRIPOS>ATOM
      1 C         139.3482  138.1869  164.0420 C.ar    1  UNL1        0.1534
      2 C         138.4948  138.1311  165.2743 C.ar    1  UNL1        0.0591
      3 C         138.9004  138.8909  166.5024 C.ar    1  UNL1        0.1072
      4 N         138.0469  138.8350  167.7348 N.ar    1  UNL1       -0.1477
      5 N         138.4524  139.5948  168.9629 N.ar    1  UNL1       -0.1421
      6 C         139.7114  140.4104  168.9587 C.ar    1  UNL1        0.1690
      7 C         140.5648  140.4661  167.7264 C.ar    1  UNL1        0.0740
      8 C         140.1593  139.7064  166.4983 C.ar    1  UNL1        0.0359
      9 C         141.0126  139.7622  165.2660 C.ar    1  UNL1        0.0204
     10 C         140.6071  139.0025  164.0378 C.ar    1  UNL1        0.0824
     11 N         141.4605  139.0583  162.8055 N.pl3   1  UNL1       -0.3050
     12 C         141.2656  140.1611  161.8076 C.3     1  UNL1        0.0934
     13 C         142.1190  140.2169  160.5753 C.3     1  UNL1        0.0510
     14 C         143.1674  139.1700  160.3409 C.3     1  UNL1        0.1188
     15 C         143.3623  138.0672  161.3388 C.3     1  UNL1        0.0510
     16 C         142.5088  138.0114  162.5711 C.3     1  UNL1        0.0934
     17 O         144.0207  139.2258  159.1086 O.3     1  UNL1       -0.3535
     18 C         144.0136  140.4532  158.2463 C.3     1  UNL1        0.1740
     19 C         140.1169  141.1701  170.1869 C.2     1  UNL1        0.2635
     20 N         140.3927  140.4363  171.4658 N.am    1  UNL1       -0.3240
     21 O         140.2467  142.6636  170.1362 O.2     1  UNL1       -0.2686
     22 H         140.3076  139.4560  171.4991 H       1  UNL1        0.1453
     23 H         140.6589  140.9349  172.2719 H       1  UNL1        0.1453
     24 C         138.0564  138.0734  161.7907 C.3     1  UNL1        0.2525
     25 O         138.9427  137.4272  162.8139 O.3     1  UNL1       -0.4701
     26 N         141.8237  141.2817  167.7223 N.pl3   1  UNL1       -0.3094
     27 H         142.4445  141.2326  168.4848 H       1  UNL1        0.1523
     28 C         142.1367  142.1720  166.5563 C.ar    1  UNL1        0.0761
     29 C         143.5272  142.2116  165.9950 C.ar    1  UNL1        0.0166
     30 C         143.8402  143.1019  164.8291 C.ar    1  UNL1       -0.0028
     31 C         142.7628  143.9526  164.2245 C.ar    1  UNL1       -0.0195
     32 C         143.0759  144.8429  163.0586 C.3     1  UNL1        0.0311
     33 C         141.3724  143.9131  164.7858 C.ar    1  UNL1        0.0267
     34 C         141.0593  143.0227  165.9518 C.ar    1  UNL1        0.1531
     35 F         139.6689  142.9831  166.5131 F       1  UNL1       -0.2029
@<TRIPOS>BOND
     1    24    25    1
     2    25     1    1
     3     1     2   ar
     4     2     3   ar
     5     3     4   ar
     6     4     5   ar
     7     5     6   ar
     8     6    19    1
     9    19    20   am
    10    19    21    2
    11     6     7   ar
    12     7    26    1
    13    26    28    1
    14    28    29   ar
    15    29    30   ar
    16    30    31   ar
    17    31    32    1
    18    31    33   ar
    19    33    34   ar
    20    34    35    1
    21     7     8   ar
    22     8     9   ar
    23     9    10   ar
    24    10    11    1
    25    11    12    1
    26    12    13    1
    27    13    14    1
    28    14    17    1
    29    17    18    1
    30    14    15    1
    31    15    16    1
    32    10     1   ar
    33    16    11    1
    34     8     3   ar
    35    34    28   ar
    36    20    22    1
    37    20    23    1
    38    26    27    1
@<TRIPOS>MOLECULE
*****
 35 38 0 0 0
SMALL
GASTEIGER

@<TRIPOS>ATOM
      1 C         143.8777  142.0990  164.4676 C.ar    1  UNL1        0.1534
      2 C         143.7640  142.6287  165.8663 C.ar    1  UNL1        0.0591
      3 C         142.7810  142.0194  166.8215 C.ar    1  UNL1        0.1072
      4 N         142.6673  142.5492  168.2202 N.ar    1  UNL1       -0.1477
      5 N         141.6844  141.9398  169.1754 N.ar    1  UNL1       -0.1421
      6 C         140.8151  140.8006  168.7319 C.ar    1  UNL1        0.1690
      7 C         140.9288  140.2708  167.3332 C.ar    1  UNL1        0.0740
      8 C         141.9118  140.8802  166.3780 C.ar    1  UNL1        0.0359
      9 C         142.0255  140.3505  164.9793 C.ar    1  UNL1        0.0204
     10 C         143.0085  140.9599  164.0241 C.ar    1  UNL1        0.0824
     11 N         143.1221  140.4301  162.6253 N.pl3   1  UNL1       -0.3050
     12 C         144.1043  139.3400  162.3137 C.3     1  UNL1        0.0934
     13 C         144.2180  138.8102  160.9151 C.3     1  UNL1        0.0510
     14 C         143.3496  139.3705  159.8279 C.3     1  UNL1        0.1188
     15 C         142.3674  140.4606  160.1394 C.3     1  UNL1        0.0510
     16 C         142.2537  140.9904  161.5382 C.3     1  UNL1        0.0934
     17 O         143.4633  138.8407  158.4292 O.3     1  UNL1       -0.3535
     18 C         142.4001  137.9354  157.8813 C.3     1  UNL1        0.1740
     19 C         139.8321  140.1912  169.6871 C.2     1  UNL1        0.2635
     20 N         140.1694  140.0862  171.1449 N.am    1  UNL1       -0.3240
     21 O         138.5120  139.6867  169.1845 O.2     1  UNL1       -0.2686
     22 H         141.0358  140.4173  171.4748 H       1  UNL1        0.1453
     23 H         139.5242  139.6863  171.7719 H       1  UNL1        0.1453
     24 C         144.4264  143.8081  162.5893 C.3     1  UNL1        0.2525
     25 O         144.8607  142.7084  163.5124 O.3     1  UNL1       -0.4701
     26 N         140.0595  139.1317  166.8897 N.pl3   1  UNL1       -0.3094
     27 H         139.9002  138.3702  167.4930 H       1  UNL1        0.1523
     28 C         139.4330  139.1527  165.5269 C.ar    1  UNL1        0.0761
     29 C         138.5362  140.2881  165.1312 C.ar    1  UNL1        0.0166
     30 C         137.9097  140.3092  163.7685 C.ar    1  UNL1       -0.0028
     31 C         138.1801  139.1948  162.8014 C.ar    1  UNL1       -0.0195
     32 C         137.5536  139.2159  161.4387 C.3     1  UNL1        0.0311
     33 C         139.0769  138.0594  163.1971 C.ar    1  UNL1        0.0267
     34 C         139.7034  138.0384  164.5599 C.ar    1  UNL1        0.1531
     35 F         140.6003  136.9030  164.9556 F       1  UNL1       -0.2029
@<TRIPOS>BOND
     1    24    25    1
     2    25     1    1
     3     1     2   ar
     4     2     3   ar
     5     3     4   ar
     6     4     5   ar
     7     5     6   ar
     8     6    19    1
     9    19    20   am
    10    19    21    2
    11     6     7   ar
    12     7    26    1
    13    26    28    1
    14    28    29   ar
    15    29    30   ar
    16    30    31   ar
    17    31    32    1
    18    31    33   ar
    19    33    34   ar
    20    34    35    1
    21     7     8   ar
    22     8     9   ar
    23     9    10   ar
    24    10    11    1
    25    11    12    1
    26    12    13    1
    27    13    14    1
    28    14    17    1
    29    17    18    1
    30    14    15    1
    31    15    16    1
    32    10     1   ar
    33    16    11    1
    34     8     3   ar
    35    34    28   ar
    36    20    22    1
    37    20    23    1
    38    26    27    1
@<TRIPOS>MOLECULE
*****
 35 38 0 0 0
SMALL
GASTEIGER

@<TRIPOS>ATOM
      1 C         139.1779  138.3619  163.5404 C.ar    1  UNL1        0.1534
      2 C         138.5103  138.4633  164.8798 C.ar    1  UNL1        0.0591
      3 C         139.2631  139.0173  166.0530 C.ar    1  UNL1        0.1072
      4 N         138.5954  139.1188  167.3924 N.ar    1  UNL1       -0.1477
      5 N         139.3482  139.6728  168.5656 N.ar    1  UNL1       -0.1421
      6 C         140.7687  140.1254  168.3993 C.ar    1  UNL1        0.1690
      7 C         141.4362  140.0240  167.0600 C.ar    1  UNL1        0.0740
      8 C         140.6835  139.4699  165.8868 C.ar    1  UNL1        0.0359
      9 C         141.3510  139.3685  164.5474 C.ar    1  UNL1        0.0204
     10 C         140.5982  138.8145  163.3742 C.ar    1  UNL1        0.0824
     11 N         141.2659  138.7130  162.0348 N.pl3   1  UNL1       -0.3050
     12 C         142.2411  137.6057  161.7648 C.3     1  UNL1        0.0934
     13 C         142.9087  137.5043  160.4255 C.3     1  UNL1        0.0510
     14 C         142.6012  138.5102  159.3560 C.3     1  UNL1        0.1188
     15 C         141.6260  139.6175  159.6259 C.3     1  UNL1        0.0510
     16 C         140.9584  139.7189  160.9654 C.3     1  UNL1        0.0934
     17 O         143.2688  138.4087  158.0166 O.3     1  UNL1       -0.3535
     18 C         142.8842  137.3123  157.0680 C.3     1  UNL1        0.1740
     19 C         141.5215  140.6795  169.5725 C.2     1  UNL1        0.2635
     20 N         141.5646  139.9172  170.8637 N.am    1  UNL1       -0.3240
     21 O         142.2310  141.9957  169.4545 O.2     1  UNL1       -0.2686
     22 H         141.0989  139.0533  170.9412 H       1  UNL1        0.1453
     23 H         142.0587  140.2808  171.6337 H       1  UNL1        0.1453
     24 C         137.5417  138.7046  161.5517 C.3     1  UNL1        0.2525
     25 O         138.4251  137.8078  162.3672 O.3     1  UNL1       -0.4701
     26 N         142.8566  140.4766  166.8938 N.pl3   1  UNL1       -0.3094
     27 H         143.5557  140.1355  167.4971 H       1  UNL1        0.1523
     28 C         143.2118  141.4490  165.8082 C.ar    1  UNL1        0.0761
     29 C         142.4991  142.7658  165.7182 C.ar    1  UNL1        0.0166
     30 C         142.8542  143.7381  164.6327 C.ar    1  UNL1       -0.0028
     31 C         143.9221  143.3937  163.6371 C.ar    1  UNL1       -0.0195
     32 C         144.2772  144.3661  162.5516 C.3     1  UNL1        0.0311
     33 C         144.6348  142.0769  163.7271 C.ar    1  UNL1        0.0267
     34 C         144.2796  141.1045  164.8127 C.ar    1  UNL1        0.1531
     35 F         144.9923  139.7877  164.9027 F       1  UNL1       -0.2029
@<TRIPOS>BOND
     1    24    25    1
     2    25     1    1
     3     1     2   ar
     4     2     3   ar
     5     3     4   ar
     6     4     5   ar
     7     5     6   ar
     8     6    19    1
     9    19    20   am
    10    19    21    2
    11     6     7   ar
    12     7    26    1
    13    26    28    1
    14    28    29   ar
    15    29    30   ar
    16    30    31   ar
    17    31    32    1
    18    31    33   ar
    19    33    34   ar
    20    34    35    1
    21     7     8   ar
    22     8     9   ar
    23     9    10   ar
    24    10    11    1
    25    11    12    1
    26    12    13    1
    27    13    14    1
    28    14    17    1
    29    17    18    1
    30    14    15    1
    31    15    16    1
    32    10     1   ar
    33    16    11    1
    34     8     3   ar
    35    34    28   ar
    36    20    22    1
    37    20    23    1
    38    26    27    1
@<TRIPOS>MOLECULE
*****
 35 38 0 0 0
SMALL
GASTEIGER

@<TRIPOS>ATOM
      1 C         139.5255  138.1116  162.4486 C.ar    1  UNL1        0.1534
      2 C         139.4700  137.9702  160.9563 C.ar    1  UNL1        0.0591
      3 C         139.1376  139.1577  160.1023 C.ar    1  UNL1        0.1072
      4 N         139.0821  139.0163  158.6100 N.ar    1  UNL1       -0.1477
      5 N         138.7496  140.2039  157.7560 N.ar    1  UNL1       -0.1421
      6 C         138.4727  141.5327  158.3943 C.ar    1  UNL1        0.1690
      7 C         138.5282  141.6741  159.8866 C.ar    1  UNL1        0.0740
      8 C         138.8606  140.4866  160.7406 C.ar    1  UNL1        0.0359
      9 C         138.9161  140.6279  162.2328 C.ar    1  UNL1        0.0204
     10 C         139.2485  139.4404  163.0868 C.ar    1  UNL1        0.0824
     11 N         139.3040  139.5818  164.5792 N.pl3   1  UNL1       -0.3050
     12 C         140.4314  140.3360  165.2197 C.3     1  UNL1        0.0934
     13 C         140.4870  140.4774  166.7119 C.3     1  UNL1        0.0510
     14 C         139.4150  139.8646  167.5638 C.3     1  UNL1        0.1188
     15 C         138.2876  139.1104  166.9233 C.3     1  UNL1        0.0510
     16 C         138.2322  138.9690  165.4310 C.3     1  UNL1        0.0934
     17 O         139.4706  140.0060  169.0560 O.3     1  UNL1       -0.3535
     18 C         140.7905  139.9480  169.7663 C.3     1  UNL1        0.1740
     19 C         138.1402  142.7203  157.5403 C.2     1  UNL1        0.2635
     20 N         136.8693  142.7389  156.7437 N.am    1  UNL1       -0.3240
     21 O         139.0786  143.8890  157.4829 O.2     1  UNL1       -0.2686
     22 H         136.2534  141.9718  156.7814 H       1  UNL1        0.1453
     23 H         136.6511  143.5183  156.1832 H       1  UNL1        0.1453
     24 C         141.1835  136.8498  164.0007 C.3     1  UNL1        0.2525
     25 O         139.8580  136.9241  163.3026 O.3     1  UNL1       -0.4701
     26 N         138.2512  143.0029  160.5249 N.pl3   1  UNL1       -0.3094
     27 H         137.3834  143.4458  160.3830 H       1  UNL1        0.1523
     28 C         139.2964  143.6570  161.3792 C.ar    1  UNL1        0.0761
     29 C         140.7306  143.6587  160.9401 C.ar    1  UNL1        0.0166
     30 C         141.7758  144.3128  161.7944 C.ar    1  UNL1       -0.0028
     31 C         141.3867  144.9651  163.0879 C.ar    1  UNL1       -0.0195
     32 C         142.4318  145.6192  163.9422 C.3     1  UNL1        0.0311
     33 C         139.9524  144.9634  163.5270 C.ar    1  UNL1        0.0267
     34 C         138.9072  144.3093  162.6726 C.ar    1  UNL1        0.1531
     35 F         137.4729  144.3076  163.1118 F       1  UNL1       -0.2029
@<TRIPOS>BOND
     1    24    25    1
     2    25     1    1
     3     1     2   ar
     4     2     3   ar
     5     3     4   ar
     6     4     5   ar
     7     5     6   ar
     8     6    19    1
     9    19    20   am
    10    19    21    2
    11     6     7   ar
    12     7    26    1
    13    26    28    1
    14    28    29   ar
    15    29    30   ar
    16    30    31   ar
    17    31    32    1
    18    31    33   ar
    19    33    34   ar
    20    34    35    1
    21     7     8   ar
    22     8     9   ar
    23     9    10   ar
    24    10    11    1
    25    11    12    1
    26    12    13    1
    27    13    14    1
    28    14    17    1
    29    17    18    1
    30    14    15    1
    31    15    16    1
    32    10     1   ar
    33    16    11    1
    34     8     3   ar
    35    34    28   ar
    36    20    22    1
    37    20    23    1
    38    26    27    1
@<TRIPOS>MOLECULE
*****
 35 38 0 0 0
SMALL
GASTEIGER

@<TRIPOS>ATOM
      1 C         138.1980  141.1576  162.9289 C.ar    1  UNL1        0.1534
      2 C         137.6427  140.2469  163.9836 C.ar    1  UNL1        0.0591
      3 C         138.3005  140.1691  165.3294 C.ar    1  UNL1        0.1072
      4 N         137.7451  139.2584  166.3841 N.ar    1  UNL1       -0.1477
      5 N         138.4029  139.1806  167.7299 N.ar    1  UNL1       -0.1421
      6 C         139.6160  140.0135  168.0211 C.ar    1  UNL1        0.1690
      7 C         140.1713  140.9242  166.9665 C.ar    1  UNL1        0.0740
      8 C         139.5135  141.0020  165.6206 C.ar    1  UNL1        0.0359
      9 C         140.0688  141.9127  164.5660 C.ar    1  UNL1        0.0204
     10 C         139.4110  141.9905  163.2201 C.ar    1  UNL1        0.0824
     11 N         139.9663  142.9012  162.1655 N.pl3   1  UNL1       -0.3050
     12 C         139.6066  144.3574  162.1668 C.3     1  UNL1        0.0934
     13 C         140.1618  145.2681  161.1122 C.3     1  UNL1        0.0510
     14 C         141.0770  144.7226  160.0562 C.3     1  UNL1        0.1188
     15 C         141.4367  143.2664  160.0548 C.3     1  UNL1        0.0510
     16 C         140.8814  142.3557  161.1095 C.3     1  UNL1        0.0934
     17 O         141.6322  145.6333  159.0016 O.3     1  UNL1       -0.3535
     18 C         140.9208  145.7831  157.6896 C.3     1  UNL1        0.1740
     19 C         140.2738  139.9358  169.3670 C.2     1  UNL1        0.2635
     20 N         141.6642  139.3868  169.4916 N.am    1  UNL1       -0.3240
     21 O         139.5412  140.4068  170.5881 O.2     1  UNL1       -0.2686
     22 H         142.1450  139.0777  168.6900 H       1  UNL1        0.1453
     23 H         142.0959  139.3358  170.3749 H       1  UNL1        0.1453
     24 C         137.6262  140.0738  160.6380 C.3     1  UNL1        0.2525
     25 O         137.5402  141.2354  161.5831 O.3     1  UNL1       -0.4701
     26 N         141.3843  141.7571  167.2577 N.pl3   1  UNL1       -0.3094
     27 H         141.4148  142.3160  168.0675 H       1  UNL1        0.1523
     28 C         142.5510  141.7383  166.3149 C.ar    1  UNL1        0.0761
     29 C         143.1866  143.0263  165.8826 C.ar    1  UNL1        0.0166
     30 C         144.3532  143.0076  164.9399 C.ar    1  UNL1       -0.0028
     31 C         144.8842  141.7008  164.4295 C.ar    1  UNL1       -0.0195
     32 C         146.0508  141.6821  163.4869 C.3     1  UNL1        0.0311
     33 C         144.2485  140.4128  164.8619 C.ar    1  UNL1        0.0267
     34 C         143.0819  140.4315  165.8046 C.ar    1  UNL1        0.1531
     35 F         142.4463  139.1435  166.2370 F       1  UNL1       -0.2029
@<TRIPOS>BOND
     1    24    25    1
     2    25     1    1
     3     1     2   ar
     4     2     3   ar
     5     3     4   ar
     6     4     5   ar
     7     5     6   ar
     8     6    19    1
     9    19    20   am
    10    19    21    2
    11     6     7   ar
    12     7    26    1
    13    26    28    1
    14    28    29   ar
    15    29    30   ar
    16    30    31   ar
    17    31    32    1
    18    31    33   ar
    19    33    34   ar
    20    34    35    1
    21     7     8   ar
    22     8     9   ar
    23     9    10   ar
    24    10    11    1
    25    11    12    1
    26    12    13    1
    27    13    14    1
    28    14    17    1
    29    17    18    1
    30    14    15    1
    31    15    16    1
    32    10     1   ar
    33    16    11    1
    34     8     3   ar
    35    34    28   ar
    36    20    22    1
    37    20    23    1
    38    26    27    1
@<TRIPOS>MOLECULE
*****
 35 38 0 0 0
SMALL
GASTEIGER

@<TRIPOS>ATOM
      1 C         138.5513  140.7335  162.1786 C.ar    1  UNL1        0.1534
      2 C         138.1198  141.1706  160.8101 C.ar    1  UNL1        0.0591
      3 C         138.8130  142.3172  160.1357 C.ar    1  UNL1        0.1072
      4 N         138.3814  142.7542  158.7672 N.ar    1  UNL1       -0.1477
      5 N         139.0746  143.9008  158.0927 N.ar    1  UNL1       -0.1421
      6 C         140.1993  144.6104  158.7869 C.ar    1  UNL1        0.1690
      7 C         140.6307  144.1733  160.1553 C.ar    1  UNL1        0.0740
      8 C         139.9376  143.0267  160.8298 C.ar    1  UNL1        0.0359
      9 C         140.3690  142.5896  162.1982 C.ar    1  UNL1        0.0204
     10 C         139.6759  141.4431  162.8727 C.ar    1  UNL1        0.0824
     11 N         140.1074  141.0060  164.2412 N.pl3   1  UNL1       -0.3050
     12 C         139.3677  141.4928  165.4520 C.3     1  UNL1        0.0934
     13 C         139.7991  141.0558  166.8205 C.3     1  UNL1        0.0510
     14 C         140.9704  140.1320  166.9783 C.3     1  UNL1        0.1188
     15 C         141.7101  139.6452  165.7676 C.3     1  UNL1        0.0510
     16 C         141.2786  140.0822  164.3990 C.3     1  UNL1        0.0934
     17 O         141.4018  139.6950  168.3468 O.3     1  UNL1       -0.3535
     18 C         140.5943  140.0869  169.5486 C.3     1  UNL1        0.1740
     19 C         140.8924  145.7570  158.1124 C.2     1  UNL1        0.2635
     20 N         140.1047  146.7244  157.2795 N.am    1  UNL1       -0.3240
     21 O         142.3732  145.9361  158.2709 O.2     1  UNL1       -0.2686
     22 H         139.1328  146.6068  157.1756 H       1  UNL1        0.1453
     23 H         140.5597  147.4770  156.8369 H       1  UNL1        0.1453
     24 C         138.3565  138.1865  162.6525 C.3     1  UNL1        0.2525
     25 O         137.8581  139.5869  162.8531 O.3     1  UNL1       -0.4701
     26 N         141.7553  144.8828  160.8494 N.pl3   1  UNL1       -0.3094
     27 H         141.7999  145.8662  160.8356 H       1  UNL1        0.1523
     28 C         142.8121  144.0941  161.5644 C.ar    1  UNL1        0.0761
     29 C         143.5793  143.0327  160.8331 C.ar    1  UNL1        0.0166
     30 C         144.6360  142.2439  161.5481 C.ar    1  UNL1       -0.0028
     31 C         144.9255  142.5165  162.9944 C.ar    1  UNL1       -0.0195
     32 C         145.9822  141.7277  163.7094 C.3     1  UNL1        0.0311
     33 C         144.1583  143.5779  163.7258 C.ar    1  UNL1        0.0267
     34 C         143.1015  144.3666  163.0107 C.ar    1  UNL1        0.1531
     35 F         142.3343  145.4280  163.7421 F       1  UNL1       -0.2029
@<TRIPOS>BOND
     1    24    25    1
     2    25     1    1
     3     1     2   ar
     4     2     3   ar
     5     3     4   ar
     6     4     5   ar
     7     5     6   ar
     8     6    19    1
     9    19    20   am
    10    19    21    2
    11     6     7   ar
    12     7    26    1
    13    26    28    1
    14    28    29   ar
    15    29    30   ar
    16    30    31   ar
    17    31    32    1
    18    31    33   ar
    19    33    34   ar
    20    34    35    1
    21     7     8   ar
    22     8     9   ar
    23     9    10   ar
    24    10    11    1
    25    11    12    1
    26    12    13    1
    27    13    14    1
    28    14    17    1
    29    17    18    1
    30    14    15    1
    31    15    16    1
    32    10     1   ar
    33    16    11    1
    34     8     3   ar
    35    34    28   ar
    36    20    22    1
    37    20    23    1
    38    26    27    1
@<TRIPOS>MOLECULE
*****
 35 38 0 0 0
SMALL
GASTEIGER

@<TRIPOS>ATOM
      1 C         138.9927  143.2510  164.0377 C.ar    1  UNL1        0.1534
      2 C         139.3756  143.6626  165.4283 C.ar    1  UNL1        0.0591
      3 C         140.0335  142.6770  166.3479 C.ar    1  UNL1        0.1072
      4 N         140.4165  143.0887  167.7386 N.ar    1  UNL1       -0.1477
      5 N         141.0744  142.1030  168.6581 N.ar    1  UNL1       -0.1421
      6 C         141.3494  140.7057  168.1870 C.ar    1  UNL1        0.1690
      7 C         140.9664  140.2940  166.7964 C.ar    1  UNL1        0.0740
      8 C         140.3085  141.2797  165.8768 C.ar    1  UNL1        0.0359
      9 C         139.9256  140.8681  164.4862 C.ar    1  UNL1        0.0204
     10 C         139.2676  141.8537  163.5666 C.ar    1  UNL1        0.0824
     11 N         138.8847  141.4420  162.1759 N.pl3   1  UNL1       -0.3050
     12 C         137.7899  140.4384  161.9656 C.3     1  UNL1        0.0934
     13 C         137.4070  140.0267  160.5750 C.3     1  UNL1        0.0510
     14 C         138.1188  140.6186  159.3947 C.3     1  UNL1        0.1188
     15 C         139.2136  141.6222  159.6050 C.3     1  UNL1        0.0510
     16 C         139.5965  142.0339  160.9957 C.3     1  UNL1        0.0934
     17 O         137.7358  140.2069  158.0041 O.3     1  UNL1       -0.3535
     18 C         137.2295  141.2304  157.0314 C.3     1  UNL1        0.1740
     19 C         142.0073  139.7200  169.1066 C.2     1  UNL1        0.2635
     20 N         141.5294  139.5797  170.5215 N.am    1  UNL1       -0.3240
     21 O         143.1431  138.8747  168.6113 O.2     1  UNL1       -0.2686
     22 H         140.7839  140.1345  170.8466 H       1  UNL1        0.1453
     23 H         141.9612  138.9327  171.1251 H       1  UNL1        0.1453
     24 C         139.1374  145.3509  162.5148 C.3     1  UNL1        0.2525
     25 O         138.3347  144.2366  163.1181 O.3     1  UNL1       -0.4701
     26 N         141.2414  138.8967  166.3254 N.pl3   1  UNL1       -0.3094
     27 H         140.9684  138.1286  166.8772 H       1  UNL1        0.1523
     28 C         141.9324  138.6699  165.0134 C.ar    1  UNL1        0.0761
     29 C         143.2945  139.2503  164.7729 C.ar    1  UNL1        0.0166
     30 C         143.9854  139.0234  163.4610 C.ar    1  UNL1       -0.0028
     31 C         143.3143  138.2161  162.3895 C.ar    1  UNL1       -0.0195
     32 C         144.0053  137.9893  161.0777 C.3     1  UNL1        0.0311
     33 C         141.9522  137.6357  162.6301 C.ar    1  UNL1        0.0267
     34 C         141.2613  137.8626  163.9420 C.ar    1  UNL1        0.1531
     35 F         139.8992  137.2822  164.1825 F       1  UNL1       -0.2029
@<TRIPOS>BOND
     1    24    25    1
     2    25     1    1
     3     1     2   ar
     4     2     3   ar
     5     3     4   ar
     6     4     5   ar
     7     5     6   ar
     8     6    19    1
     9    19    20   am
    10    19    21    2
    11     6     7   ar
    12     7    26    1
    13    26    28    1
    14    28    29   ar
    15    29    30   ar
    16    30    31   ar
    17    31    32    1
    18    31    33   ar
    19    33    34   ar
    20    34    35    1
    21     7     8   ar
    22     8     9   ar
    23     9    10   ar
    24    10    11    1
    25    11    12    1
    26    12    13    1
    27    13    14    1
    28    14    17    1
    29    17    18    1
    30    14    15    1
    31    15    16    1
    32    10     1   ar
    33    16    11    1
    34     8     3   ar
    35    34    28   ar
    36    20    22    1
    37    20    23    1
    38    26    27    1
@<TRIPOS>MOLECULE
*****
 35 38 0 0 0
SMALL
GASTEIGER

@<TRIPOS>ATOM
      1 C         139.0488  138.2785  164.1133 C.ar    1  UNL1        0.1534
      2 C         138.5132  138.1634  165.5096 C.ar    1  UNL1        0.0591
      3 C         138.9750  139.1173  166.5711 C.ar    1  UNL1        0.1072
      4 N         138.4392  139.0021  167.9675 N.ar    1  UNL1       -0.1477
      5 N         138.9011  139.9560  169.0290 N.ar    1  UNL1       -0.1421
      6 C         139.8986  141.0251  168.6942 C.ar    1  UNL1        0.1690
      7 C         140.4343  141.1402  167.2979 C.ar    1  UNL1        0.0740
      8 C         139.9725  140.1863  166.2363 C.ar    1  UNL1        0.0359
      9 C         140.5082  140.3014  164.8400 C.ar    1  UNL1        0.0204
     10 C         140.0463  139.3475  163.7785 C.ar    1  UNL1        0.0824
     11 N         140.5821  139.4627  162.3821 N.pl3   1  UNL1       -0.3050
     12 C         140.1800  140.6208  161.5177 C.3     1  UNL1        0.0934
     13 C         140.7157  140.7360  160.1214 C.3     1  UNL1        0.0510
     14 C         141.6535  139.6931  159.5895 C.3     1  UNL1        0.1188
     15 C         142.0556  138.5350  160.4538 C.3     1  UNL1        0.0510
     16 C         141.5198  138.4198  161.8502 C.3     1  UNL1        0.0934
     17 O         142.1892  139.8083  158.1931 O.3     1  UNL1       -0.3535
     18 C         142.8551  138.6304  157.5457 C.3     1  UNL1        0.1740
     19 C         140.3604  141.9790  169.7557 C.2     1  UNL1        0.2635
     20 N         139.4096  142.4284  170.8253 N.am    1  UNL1       -0.3240
     21 O         141.7730  142.4834  169.7476 O.2     1  UNL1       -0.2686
     22 H         138.4825  142.0973  170.8306 H       1  UNL1        0.1453
     23 H         139.7127  143.0545  171.5220 H       1  UNL1        0.1453
     24 C         137.7992  137.8307  161.8800 C.3     1  UNL1        0.2525
     25 O         138.5870  137.3246  163.0518 O.3     1  UNL1       -0.4701
     26 N         141.4318  142.2092  166.9631 N.pl3   1  UNL1       -0.3094
     27 H         142.2494  142.3060  167.5029 H       1  UNL1        0.1523
     28 C         141.1836  143.1307  165.8058 C.ar    1  UNL1        0.0761
     29 C         139.8421  143.7809  165.6390 C.ar    1  UNL1        0.0166
     30 C         139.5939  144.7024  164.4818 C.ar    1  UNL1       -0.0028
     31 C         140.6872  144.9738  163.4913 C.ar    1  UNL1       -0.0195
     32 C         140.4390  145.8953  162.3340 C.3     1  UNL1        0.0311
     33 C         142.0287  144.3236  163.6580 C.ar    1  UNL1        0.0267
     34 C         142.2768  143.4021  164.8153 C.ar    1  UNL1        0.1531
     35 F         143.6183  142.7520  164.9820 F       1  UNL1       -0.2029
@<TRIPOS>BOND
     1    24    25    1
     2    25     1    1
     3     1     2   ar
     4     2     3   ar
     5     3     4   ar
     6     4     5   ar
     7     5     6   ar
     8     6    19    1
     9    19    20   am
    10    19    21    2
    11     6     7   ar
    12     7    26    1
    13    26    28    1
    14    28    29   ar
    15    29    30   ar
    16    30    31   ar
    17    31    32    1
    18    31    33   ar
    19    33    34   ar
    20    34    35    1
    21     7     8   ar
    22     8     9   ar
    23     9    10   ar
    24    10    11    1
    25    11    12    1
    26    12    13    1
    27    13    14    1
    28    14    17    1
    29    17    18    1
    30    14    15    1
    31    15    16    1
    32    10     1   ar
    33    16    11    1
    34     8     3   ar
    35    34    28   ar
    36    20    22    1
    37    20    23    1
    38    26    27    1
@<TRIPOS>MOLECULE
*****
 35 38 0 0 0
SMALL
GASTEIGER

@<TRIPOS>ATOM
      1 C         143.3563  143.5950  164.3414 C.ar    1  UNL1        0.1534
      2 C         143.9129  143.3308  165.7090 C.ar    1  UNL1        0.0591
      3 C         143.0675  142.6499  166.7441 C.ar    1  UNL1        0.1072
      4 N         143.6242  142.3856  168.1118 N.ar    1  UNL1       -0.1477
      5 N         142.7788  141.7047  169.1470 N.ar    1  UNL1       -0.1421
      6 C         141.3766  141.2880  168.8145 C.ar    1  UNL1        0.1690
      7 C         140.8200  141.5523  167.4469 C.ar    1  UNL1        0.0740
      8 C         141.6654  142.2332  166.4118 C.ar    1  UNL1        0.0359
      9 C         141.1088  142.4974  165.0442 C.ar    1  UNL1        0.0204
     10 C         141.9542  143.1783  164.0090 C.ar    1  UNL1        0.0824
     11 N         141.3975  143.4426  162.6414 N.pl3   1  UNL1       -0.3050
     12 C         141.0478  144.8425  162.2316 C.3     1  UNL1        0.0934
     13 C         140.4911  145.1068  160.8641 C.3     1  UNL1        0.0510
     14 C         140.2841  143.9711  159.9062 C.3     1  UNL1        0.1188
     15 C         140.6338  142.5711  160.3160 C.3     1  UNL1        0.0510
     16 C         141.1905  142.3069  161.6836 C.3     1  UNL1        0.0934
     17 O         139.7274  144.2353  158.5387 O.3     1  UNL1       -0.3535
     18 C         139.1472  143.1097  157.7347 C.3     1  UNL1        0.1740
     19 C         140.5312  140.6071  169.8497 C.2     1  UNL1        0.2635
     20 N         140.9904  139.3176  170.4633 N.am    1  UNL1       -0.3240
     21 O         139.2266  141.2156  170.2713 O.2     1  UNL1       -0.2686
     22 H         141.8467  138.9182  170.1866 H       1  UNL1        0.1453
     23 H         140.4355  138.8707  171.1427 H       1  UNL1        0.1453
     24 C         144.7154  143.5009  162.1292 C.3     1  UNL1        0.2525
     25 O         144.2017  144.2759  163.3062 O.3     1  UNL1       -0.4701
     26 N         139.4179  141.1356  167.1145 N.pl3   1  UNL1       -0.3094
     27 H         138.6741  141.3955  167.7048 H       1  UNL1        0.1523
     28 C         139.1491  140.3228  165.8827 C.ar    1  UNL1        0.0761
     29 C         139.7415  138.9517  165.7448 C.ar    1  UNL1        0.0166
     30 C         139.4727  138.1390  164.5131 C.ar    1  UNL1       -0.0028
     31 C         138.6114  138.6974  163.4192 C.ar    1  UNL1       -0.0195
     32 C         138.3426  137.8846  162.1875 C.3     1  UNL1        0.0311
     33 C         138.0190  140.0685  163.5571 C.ar    1  UNL1        0.0267
     34 C         138.2879  140.8812  164.7889 C.ar    1  UNL1        0.1531
     35 F         137.6954  142.2524  164.9269 F       1  UNL1       -0.2029
@<TRIPOS>BOND
     1    24    25    1
     2    25     1    1
     3     1     2   ar
     4     2     3   ar
     5     3     4   ar
     6     4     5   ar
     7     5     6   ar
     8     6    19    1
     9    19    20   am
    10    19    21    2
    11     6     7   ar
    12     7    26    1
    13    26    28    1
    14    28    29   ar
    15    29    30   ar
    16    30    31   ar
    17    31    32    1
    18    31    33   ar
    19    33    34   ar
    20    34    35    1
    21     7     8   ar
    22     8     9   ar
    23     9    10   ar
    24    10    11    1
    25    11    12    1
    26    12    13    1
    27    13    14    1
    28    14    17    1
    29    17    18    1
    30    14    15    1
    31    15    16    1
    32    10     1   ar
    33    16    11    1
    34     8     3   ar
    35    34    28   ar
    36    20    22    1
    37    20    23    1
    38    26    27    1
