@<TRIPOS>MOLECULE
*****
 45 49 0 0 0
SMALL
GASTEIGER

@<TRIPOS>ATOM
      1 C         142.7625  141.8164  159.5045 C.ar    1  UNL1        0.0375
      2 C         143.7871  142.6608  158.8065 C.ar    1  UNL1        0.1031
      3 N         143.3747  143.5643  157.6824 N.ar    1  UNL1       -0.2121
      4 C         141.9377  143.6235  157.2564 C.ar    1  UNL1        0.2200
      5 N         140.9131  142.7791  157.9543 N.ar    1  UNL1       -0.2163
      6 C         141.3256  141.8755  159.0784 C.ar    1  UNL1        0.0836
      7 C         143.6690  139.5274  160.3345 C.ar    1  UNL1        0.1387
      8 C         144.0814  138.6239  161.4586 C.ar    1  UNL1        0.0369
      9 C         143.9998  139.1059  162.8767 C.ar    1  UNL1        0.0031
     10 C         143.5059  140.4913  163.1708 C.ar    1  UNL1       -0.0001
     11 C         143.0934  141.3948  162.0467 C.ar    1  UNL1        0.0031
     12 C         143.1750  140.9128  160.6286 C.ar    1  UNL1        0.0367
     13 C         143.4243  140.9732  164.5889 C.ar    1  UNL1       -0.0039
     14 C         143.8147  142.3817  164.9260 C.ar    1  UNL1       -0.0003
     15 C         143.7331  142.8637  166.3441 C.ar    1  UNL1        0.0011
     16 C         143.2612  141.9371  167.4251 C.ar    1  UNL1        0.0137
     17 C         142.8708  140.5286  167.0881 C.ar    1  UNL1       -0.0031
     18 C         142.9524  140.0467  165.6699 C.ar    1  UNL1       -0.0218
     19 C         142.5620  138.6381  165.3329 C.3     1  UNL1        0.0310
     20 C         143.1797  142.4191  168.8433 C.2     1  UNL1        0.0729
     21 O         141.8449  142.5519  169.5147 O.co2   1  UNL1       -0.5446
     22 O         144.4328  142.7682  169.5900 O.co2   1  UNL1       -0.5446
     23 C         142.6249  138.2459  158.3301 C.3     1  UNL1        0.2525
     24 O         143.7505  139.0454  158.9164 O.3     1  UNL1       -0.4714
     25 N         141.5253  144.5271  156.1323 N.pl3   1  UNL1       -0.2747
     26 C         142.5444  145.0022  155.1395 C.3     1  UNL1        0.1151
     27 C         140.0938  144.9554  156.0011 C.3     1  UNL1        0.1151
     28 C         140.3010  141.0311  159.7764 C.3     1  UNL1        0.1428
     29 N         139.8529  141.3884  161.1627 N.am    1  UNL1       -0.2380
     30 C         139.3082  142.7164  161.5983 C.2     1  UNL1        0.4055
     31 O         139.1159  143.9202  160.7244 O.2     1  UNL1       -0.2262
     32 O         138.9895  142.6292  163.0616 O.3     1  UNL1       -0.4320
     33 C         139.3373  141.2473  163.5302 C.3     1  UNL1        0.2107
     34 C         139.8709  140.4805  162.3566 C.3     1  UNL1        0.1233
     35 C         140.3401  139.0559  162.3738 C.3     1  UNL1        0.0258
     36 C         139.1793  140.7242  164.9270 C.ar    1  UNL1        0.0189
     37 C         139.6806  141.5277  166.0901 C.ar    1  UNL1       -0.0008
     38 C         139.5226  141.0046  167.4870 C.ar    1  UNL1       -0.0003
     39 C         138.8631  139.6778  167.7208 C.ar    1  UNL1        0.0038
     40 C         138.3617  138.8741  166.5576 C.ar    1  UNL1        0.0712
     41 C         138.5198  139.3974  165.1608 C.ar    1  UNL1        0.0031
     42 C         137.7022  137.5473  166.7914 C.3     1  UNL1        0.4186
     43 F         137.0428  136.2205  167.0253 F       1  UNL1       -0.1659
     44 F         136.9318  138.1322  167.9378 F       1  UNL1       -0.1659
     45 F         138.4727  136.9623  165.6451 F       1  UNL1       -0.1659
@<TRIPOS>UNITY_ATOM_ATTR
21 1
charge -1
@<TRIPOS>BOND
     1    23    24    1
     2    24     7    1
     3     7     8   ar
     4     8     9   ar
     5     9    10   ar
     6    10    13    1
     7    13    14   ar
     8    14    15   ar
     9    15    16   ar
    10    16    20    1
    11    20    21   ar
    12    20    22   ar
    13    16    17   ar
    14    17    18   ar
    15    18    19    1
    16    10    11   ar
    17    11    12   ar
    18    12     1    1
    19     1     2   ar
    20     2     3   ar
    21     3     4   ar
    22     4    25    1
    23    25    26    1
    24    25    27    1
    25     4     5   ar
    26     5     6   ar
    27     6    28    1
    28    28    29    1
    29    29    30   am
    30    30    31    2
    31    30    32    1
    32    32    33    1
    33    33    36    1
    34    36    37   ar
    35    37    38   ar
    36    38    39   ar
    37    39    40   ar
    38    40    42    1
    39    42    43    1
    40    42    44    1
    41    42    45    1
    42    40    41   ar
    43    33    34    1
    44    34    35    1
    45    12     7   ar
    46     6     1   ar
    47    34    29    1
    48    18    13   ar
    49    41    36   ar
@<TRIPOS>MOLECULE
*****
 45 49 0 0 0
SMALL
GASTEIGER

@<TRIPOS>ATOM
      1 C         142.5730  142.8482  159.6987 C.ar    1  UNL1        0.0375
      2 C         142.2249  142.5896  158.2627 C.ar    1  UNL1        0.1031
      3 N         143.3047  142.2493  157.2788 N.ar    1  UNL1       -0.2121
      4 C         144.7327  142.1674  157.7308 C.ar    1  UNL1        0.2200
      5 N         145.0808  142.4260  159.1668 N.ar    1  UNL1       -0.2163
      6 C         144.0009  142.7664  160.1507 C.ar    1  UNL1        0.0836
      7 C         140.8796  144.5573  160.6792 C.ar    1  UNL1        0.1387
      8 C         139.7997  144.8976  161.6631 C.ar    1  UNL1        0.0369
      9 C         139.3335  143.8692  162.6505 C.ar    1  UNL1        0.0031
     10 C         139.9470  142.5004  162.6539 C.ar    1  UNL1       -0.0001
     11 C         141.0268  142.1601  161.6700 C.ar    1  UNL1        0.0031
     12 C         141.4931  143.1886  160.6826 C.ar    1  UNL1        0.0367
     13 C         139.4807  141.4720  163.6413 C.ar    1  UNL1       -0.0039
     14 C         138.9064  140.1737  163.1572 C.ar    1  UNL1       -0.0003
     15 C         138.4401  139.1453  164.1446 C.ar    1  UNL1        0.0011
     16 C         138.5482  139.4152  165.6161 C.ar    1  UNL1        0.0137
     17 C         139.1225  140.7135  166.1002 C.ar    1  UNL1       -0.0031
     18 C         139.5888  141.7419  165.1128 C.ar    1  UNL1       -0.0218
     19 C         140.1632  143.0403  165.5971 C.3     1  UNL1        0.0310
     20 C         138.0819  138.3867  166.6035 C.2     1  UNL1        0.0729
     21 O         137.9274  136.9562  166.1798 O.co2   1  UNL1       -0.5446
     22 O         137.7702  138.7889  168.0145 O.co2   1  UNL1       -0.5446
     23 C         140.5676  145.8225  158.4316 C.3     1  UNL1        0.2525
     24 O         141.3458  145.5857  159.6918 O.3     1  UNL1       -0.4714
     25 N         145.8125  141.8271  156.7469 N.pl3   1  UNL1       -0.2747
     26 C         147.1246  142.5525  156.7926 C.3     1  UNL1        0.1151
     27 C         145.5801  140.7613  155.7173 C.3     1  UNL1        0.1151
     28 C         144.3490  143.0249  161.5867 C.3     1  UNL1        0.1428
     29 N         144.0708  141.9794  162.6258 N.am    1  UNL1       -0.2380
     30 C         144.1109  140.4948  162.4154 C.2     1  UNL1        0.4055
     31 O         144.4361  139.7949  161.1292 O.2     1  UNL1       -0.2262
     32 O         143.7686  139.8328  163.7173 O.3     1  UNL1       -0.4320
     33 C         143.5170  140.9084  164.7322 C.3     1  UNL1        0.2107
     34 C         143.7038  142.2351  164.0576 C.3     1  UNL1        0.1233
     35 C         143.5505  143.5811  164.7016 C.3     1  UNL1        0.0258
     36 C         143.1441  140.6949  166.1692 C.ar    1  UNL1        0.0189
     37 C         142.8917  139.3074  166.6804 C.ar    1  UNL1       -0.0008
     38 C         142.5188  139.0939  168.1175 C.ar    1  UNL1       -0.0003
     39 C         142.3983  140.2677  169.0435 C.ar    1  UNL1        0.0038
     40 C         142.6508  141.6553  168.5324 C.ar    1  UNL1        0.0712
     41 C         143.0237  141.8687  167.0952 C.ar    1  UNL1        0.0031
     42 C         142.5304  142.8291  169.4584 C.3     1  UNL1        0.4186
     43 F         142.4099  144.0030  170.3845 F       1  UNL1       -0.1659
     44 F         143.8875  142.5252  170.0203 F       1  UNL1       -0.1659
     45 F         141.1732  143.1331  168.8966 F       1  UNL1       -0.1659
@<TRIPOS>UNITY_ATOM_ATTR
21 1
charge -1
@<TRIPOS>BOND
     1    23    24    1
     2    24     7    1
     3     7     8   ar
     4     8     9   ar
     5     9    10   ar
     6    10    13    1
     7    13    14   ar
     8    14    15   ar
     9    15    16   ar
    10    16    20    1
    11    20    21   ar
    12    20    22   ar
    13    16    17   ar
    14    17    18   ar
    15    18    19    1
    16    10    11   ar
    17    11    12   ar
    18    12     1    1
    19     1     2   ar
    20     2     3   ar
    21     3     4   ar
    22     4    25    1
    23    25    26    1
    24    25    27    1
    25     4     5   ar
    26     5     6   ar
    27     6    28    1
    28    28    29    1
    29    29    30   am
    30    30    31    2
    31    30    32    1
    32    32    33    1
    33    33    36    1
    34    36    37   ar
    35    37    38   ar
    36    38    39   ar
    37    39    40   ar
    38    40    42    1
    39    42    43    1
    40    42    44    1
    41    42    45    1
    42    40    41   ar
    43    33    34    1
    44    34    35    1
    45    12     7   ar
    46     6     1   ar
    47    34    29    1
    48    18    13   ar
    49    41    36   ar
@<TRIPOS>MOLECULE
*****
 45 49 0 0 0
SMALL
GASTEIGER

@<TRIPOS>ATOM
      1 C         141.1812  139.2765  158.8444 C.ar    1  UNL1        0.0375
      2 C         140.2985  138.4094  157.9966 C.ar    1  UNL1        0.1031
      3 N         140.9075  137.4261  157.0414 N.ar    1  UNL1       -0.2121
      4 C         142.3992  137.3099  156.9341 C.ar    1  UNL1        0.2200
      5 N         143.2818  138.1771  157.7820 N.ar    1  UNL1       -0.2163
      6 C         142.6729  139.1604  158.7372 C.ar    1  UNL1        0.0836
      7 C         140.3097  141.6694  159.3590 C.ar    1  UNL1        0.1387
      8 C         139.7007  142.6526  160.3142 C.ar    1  UNL1        0.0369
      9 C         139.3543  142.2263  161.7100 C.ar    1  UNL1        0.0031
     10 C         139.6169  140.8167  162.1506 C.ar    1  UNL1       -0.0001
     11 C         140.2258  139.8335  161.1954 C.ar    1  UNL1        0.0031
     12 C         140.5722  140.2598  159.7996 C.ar    1  UNL1        0.0367
     13 C         139.2704  140.3904  163.5464 C.ar    1  UNL1       -0.0039
     14 C         138.6075  139.0659  163.7833 C.ar    1  UNL1       -0.0003
     15 C         138.2611  138.6395  165.1791 C.ar    1  UNL1        0.0011
     16 C         138.5776  139.5377  166.3380 C.ar    1  UNL1        0.0137
     17 C         139.2405  140.8622  166.1011 C.ar    1  UNL1       -0.0031
     18 C         139.5869  141.2886  164.7053 C.ar    1  UNL1       -0.0218
     19 C         140.2499  142.6132  164.4684 C.3     1  UNL1        0.0310
     20 C         138.2312  139.1114  167.7338 C.2     1  UNL1        0.0729
     21 O         138.8662  139.7973  168.9069 O.co2   1  UNL1       -0.5446
     22 O         137.2497  137.9992  167.9565 O.co2   1  UNL1       -0.5446
     23 C         141.0861  143.5075  157.6952 C.3     1  UNL1        0.2525
     24 O         140.6561  142.0957  157.9632 O.3     1  UNL1       -0.4714
     25 N         143.0081  136.3267  155.9790 N.pl3   1  UNL1       -0.2747
     26 C         144.3367  136.6191  155.3471 C.3     1  UNL1        0.1151
     27 C         142.2883  135.0510  155.6556 C.3     1  UNL1        0.1151
     28 C         143.5555  140.0276  159.5850 C.3     1  UNL1        0.1428
     29 N         143.6309  139.8003  161.0658 N.am    1  UNL1       -0.2380
     30 C         143.9355  138.4972  161.7434 C.2     1  UNL1        0.4055
     31 O         144.2181  137.1926  161.0592 O.2     1  UNL1       -0.2262
     32 O         143.9078  138.7277  163.2254 O.3     1  UNL1       -0.4320
     33 C         143.5861  140.1734  163.4636 C.3     1  UNL1        0.2107
     34 C         143.4150  140.8362  162.1290 C.3     1  UNL1        0.1233
     35 C         143.0857  142.2813  161.8979 C.3     1  UNL1        0.0258
     36 C         143.4580  140.8392  164.8015 C.ar    1  UNL1        0.0189
     37 C         143.8504  142.2778  164.9641 C.ar    1  UNL1       -0.0008
     38 C         143.7223  142.9436  166.3020 C.ar    1  UNL1       -0.0003
     39 C         143.2017  142.1709  167.4776 C.ar    1  UNL1        0.0038
     40 C         142.8093  140.7322  167.3151 C.ar    1  UNL1        0.0712
     41 C         142.9374  140.0665  165.9771 C.ar    1  UNL1        0.0031
     42 C         142.2888  139.9595  168.4907 C.3     1  UNL1        0.4186
     43 F         141.7683  139.1867  169.6662 F       1  UNL1       -0.1659
     44 F         141.6002  141.1924  168.9963 F       1  UNL1       -0.1659
     45 F         142.9774  138.7265  167.9851 F       1  UNL1       -0.1659
@<TRIPOS>UNITY_ATOM_ATTR
21 1
charge -1
@<TRIPOS>BOND
     1    23    24    1
     2    24     7    1
     3     7     8   ar
     4     8     9   ar
     5     9    10   ar
     6    10    13    1
     7    13    14   ar
     8    14    15   ar
     9    15    16   ar
    10    16    20    1
    11    20    21   ar
    12    20    22   ar
    13    16    17   ar
    14    17    18   ar
    15    18    19    1
    16    10    11   ar
    17    11    12   ar
    18    12     1    1
    19     1     2   ar
    20     2     3   ar
    21     3     4   ar
    22     4    25    1
    23    25    26    1
    24    25    27    1
    25     4     5   ar
    26     5     6   ar
    27     6    28    1
    28    28    29    1
    29    29    30   am
    30    30    31    2
    31    30    32    1
    32    32    33    1
    33    33    36    1
    34    36    37   ar
    35    37    38   ar
    36    38    39   ar
    37    39    40   ar
    38    40    42    1
    39    42    43    1
    40    42    44    1
    41    42    45    1
    42    40    41   ar
    43    33    34    1
    44    34    35    1
    45    12     7   ar
    46     6     1   ar
    47    34    29    1
    48    18    13   ar
    49    41    36   ar
@<TRIPOS>MOLECULE
*****
 45 49 0 0 0
SMALL
GASTEIGER

@<TRIPOS>ATOM
      1 C         140.0888  141.8260  158.6082 C.ar    1  UNL1        0.0375
      2 C         139.0818  141.6800  157.5060 C.ar    1  UNL1        0.1031
      3 N         138.7139  142.8657  156.6642 N.ar    1  UNL1       -0.2121
      4 C         139.3530  144.1976  156.9246 C.ar    1  UNL1        0.2200
      5 N         140.3600  144.3437  158.0267 N.ar    1  UNL1       -0.2163
      6 C         140.7278  143.1578  158.8685 C.ar    1  UNL1        0.0836
      7 C         141.4062  139.6083  158.9178 C.ar    1  UNL1        0.1387
      8 C         141.7740  138.4225  159.7596 C.ar    1  UNL1        0.0369
      9 C         141.1922  138.2687  161.1336 C.ar    1  UNL1        0.0031
     10 C         140.2426  139.3007  161.6658 C.ar    1  UNL1       -0.0001
     11 C         139.8748  140.4864  160.8240 C.ar    1  UNL1        0.0031
     12 C         140.4566  140.6402  159.4500 C.ar    1  UNL1        0.0367
     13 C         139.6608  139.1469  163.0398 C.ar    1  UNL1       -0.0039
     14 C         138.6302  140.1197  163.5311 C.ar    1  UNL1       -0.0003
     15 C         138.0484  139.9659  164.9050 C.ar    1  UNL1        0.0011
     16 C         138.4971  138.8393  165.7877 C.ar    1  UNL1        0.0137
     17 C         139.5277  137.8664  165.2965 C.ar    1  UNL1       -0.0031
     18 C         140.1095  138.0202  163.9225 C.ar    1  UNL1       -0.0218
     19 C         141.1402  137.0473  163.4312 C.3     1  UNL1        0.0310
     20 C         137.9153  138.6855  167.1617 C.2     1  UNL1        0.0729
     21 O         136.7093  137.8190  167.3728 O.co2   1  UNL1       -0.5446
     22 O         138.5396  139.3982  168.3246 O.co2   1  UNL1       -0.5446
     23 C         143.2805  140.4994  157.3549 C.3     1  UNL1        0.2525
     24 O         141.9881  139.7621  157.5438 O.3     1  UNL1       -0.4714
     25 N         138.9852  145.3833  156.0828 N.pl3   1  UNL1       -0.2747
     26 C         137.9222  145.2564  155.0321 C.3     1  UNL1        0.1151
     27 C         139.6803  146.6960  156.2917 C.3     1  UNL1        0.1151
     28 C         141.7348  143.3039  159.9707 C.3     1  UNL1        0.1428
     29 N         141.2930  143.2445  161.4029 N.am    1  UNL1       -0.2380
     30 C         140.1675  144.0273  162.0116 C.2     1  UNL1        0.4055
     31 O         139.2862  145.0070  161.2949 O.2     1  UNL1       -0.2262
     32 O         140.0780  143.6584  163.4628 O.3     1  UNL1       -0.4320
     33 C         141.1482  142.6476  163.7510 C.3     1  UNL1        0.2107
     34 C         141.8990  142.3918  162.4779 C.3     1  UNL1        0.1233
     35 C         143.0533  141.4488  162.3093 C.3     1  UNL1        0.0258
     36 C         141.4197  142.0054  165.0790 C.ar    1  UNL1        0.0189
     37 C         140.9355  142.6570  166.3403 C.ar    1  UNL1       -0.0008
     38 C         141.2070  142.0148  167.6683 C.ar    1  UNL1       -0.0003
     39 C         141.9629  140.7209  167.7351 C.ar    1  UNL1        0.0038
     40 C         142.4473  140.0692  166.4738 C.ar    1  UNL1        0.0712
     41 C         142.1756  140.7115  165.1458 C.ar    1  UNL1        0.0031
     42 C         143.2032  138.7753  166.5407 C.3     1  UNL1        0.4186
     43 F         143.9591  137.4814  166.6075 F       1  UNL1       -0.1659
     44 F         143.4122  138.8207  165.0560 F       1  UNL1       -0.1659
     45 F         142.9942  138.7299  168.0253 F       1  UNL1       -0.1659
@<TRIPOS>UNITY_ATOM_ATTR
21 1
charge -1
@<TRIPOS>BOND
     1    23    24    1
     2    24     7    1
     3     7     8   ar
     4     8     9   ar
     5     9    10   ar
     6    10    13    1
     7    13    14   ar
     8    14    15   ar
     9    15    16   ar
    10    16    20    1
    11    20    21   ar
    12    20    22   ar
    13    16    17   ar
    14    17    18   ar
    15    18    19    1
    16    10    11   ar
    17    11    12   ar
    18    12     1    1
    19     1     2   ar
    20     2     3   ar
    21     3     4   ar
    22     4    25    1
    23    25    26    1
    24    25    27    1
    25     4     5   ar
    26     5     6   ar
    27     6    28    1
    28    28    29    1
    29    29    30   am
    30    30    31    2
    31    30    32    1
    32    32    33    1
    33    33    36    1
    34    36    37   ar
    35    37    38   ar
    36    38    39   ar
    37    39    40   ar
    38    40    42    1
    39    42    43    1
    40    42    44    1
    41    42    45    1
    42    40    41   ar
    43    33    34    1
    44    34    35    1
    45    12     7   ar
    46     6     1   ar
    47    34    29    1
    48    18    13   ar
    49    41    36   ar
@<TRIPOS>MOLECULE
*****
 45 49 0 0 0
SMALL
GASTEIGER

@<TRIPOS>ATOM
      1 C         139.4860  141.2561  158.1182 C.ar    1  UNL1        0.0375
      2 C         138.1792  140.9561  157.4457 C.ar    1  UNL1        0.1031
      3 N         137.5842  141.9453  156.4879 N.ar    1  UNL1       -0.2121
      4 C         138.2960  143.2345  156.2025 C.ar    1  UNL1        0.2200
      5 N         139.6028  143.5345  156.8750 N.ar    1  UNL1       -0.2163
      6 C         140.1978  142.5453  157.8328 C.ar    1  UNL1        0.0836
      7 C         141.2151  139.3880  158.6385 C.ar    1  UNL1        0.1387
      8 C         141.8101  138.3989  159.5963 C.ar    1  UNL1        0.0369
      9 C         141.2710  138.2886  160.9918 C.ar    1  UNL1        0.0031
     10 C         140.1370  139.1675  161.4294 C.ar    1  UNL1       -0.0001
     11 C         139.5421  140.1567  160.4715 C.ar    1  UNL1        0.0031
     12 C         140.0811  140.2669  159.0761 C.ar    1  UNL1        0.0367
     13 C         139.5980  139.0573  162.8249 C.ar    1  UNL1       -0.0039
     14 C         139.6684  137.7488  163.5549 C.ar    1  UNL1       -0.0003
     15 C         139.1294  137.6386  164.9503 C.ar    1  UNL1        0.0011
     16 C         138.5200  138.8368  165.6158 C.ar    1  UNL1        0.0137
     17 C         138.4496  140.1452  164.8858 C.ar    1  UNL1       -0.0031
     18 C         138.9886  140.2555  163.4903 C.ar    1  UNL1       -0.0218
     19 C         138.9182  141.5640  162.7603 C.3     1  UNL1        0.0310
     20 C         137.9809  138.7266  167.0112 C.2     1  UNL1        0.0729
     21 O         138.6391  139.4769  168.1309 O.co2   1  UNL1       -0.5446
     22 O         136.7838  137.8660  167.2870 O.co2   1  UNL1       -0.5446
     23 C         143.1944  139.8535  157.0213 C.3     1  UNL1        0.2525
     24 O         141.7541  139.4983  157.2430 O.3     1  UNL1       -0.4714
     25 N         137.7009  144.2236  155.2446 N.pl3   1  UNL1       -0.2747
     26 C         138.1064  145.6664  155.3081 C.3     1  UNL1        0.1151
     27 C         136.7004  143.7700  154.2233 C.3     1  UNL1        0.1151
     28 C         141.5046  142.8453  158.5053 C.3     1  UNL1        0.1428
     29 N         141.5264  143.2887  159.9382 N.am    1  UNL1       -0.2380
     30 C         140.7633  144.4441  160.5151 C.2     1  UNL1        0.4055
     31 O         139.8446  145.3589  159.7607 O.2     1  UNL1       -0.2262
     32 O         141.0803  144.5241  161.9791 O.3     1  UNL1       -0.4320
     33 C         142.0392  143.4181  162.3069 C.3     1  UNL1        0.2107
     34 C         142.3149  142.6546  161.0455 C.3     1  UNL1        0.1233
     35 C         143.2201  141.4658  160.9144 C.3     1  UNL1        0.0258
     36 C         142.6204  143.1268  163.6586 C.ar    1  UNL1        0.0189
     37 C         143.7156  143.9929  164.2067 C.ar    1  UNL1       -0.0008
     38 C         144.2968  143.7016  165.5584 C.ar    1  UNL1       -0.0003
     39 C         143.7828  142.5442  166.3622 C.ar    1  UNL1        0.0038
     40 C         142.6876  141.6780  165.8142 C.ar    1  UNL1        0.0712
     41 C         142.1064  141.9694  164.4624 C.ar    1  UNL1        0.0031
     42 C         142.1736  140.5205  166.6180 C.3     1  UNL1        0.4186
     43 F         141.6596  139.3631  167.4218 F       1  UNL1       -0.1659
     44 F         141.7716  139.8209  165.3535 F       1  UNL1       -0.1659
     45 F         142.5755  141.2202  167.8825 F       1  UNL1       -0.1659
@<TRIPOS>UNITY_ATOM_ATTR
21 1
charge -1
@<TRIPOS>BOND
     1    23    24    1
     2    24     7    1
     3     7     8   ar
     4     8     9   ar
     5     9    10   ar
     6    10    13    1
     7    13    14   ar
     8    14    15   ar
     9    15    16   ar
    10    16    20    1
    11    20    21   ar
    12    20    22   ar
    13    16    17   ar
    14    17    18   ar
    15    18    19    1
    16    10    11   ar
    17    11    12   ar
    18    12     1    1
    19     1     2   ar
    20     2     3   ar
    21     3     4   ar
    22     4    25    1
    23    25    26    1
    24    25    27    1
    25     4     5   ar
    26     5     6   ar
    27     6    28    1
    28    28    29    1
    29    29    30   am
    30    30    31    2
    31    30    32    1
    32    32    33    1
    33    33    36    1
    34    36    37   ar
    35    37    38   ar
    36    38    39   ar
    37    39    40   ar
    38    40    42    1
    39    42    43    1
    40    42    44    1
    41    42    45    1
    42    40    41   ar
    43    33    34    1
    44    34    35    1
    45    12     7   ar
    46     6     1   ar
    47    34    29    1
    48    18    13   ar
    49    41    36   ar
@<TRIPOS>MOLECULE
*****
 45 49 0 0 0
SMALL
GASTEIGER

@<TRIPOS>ATOM
      1 C         142.6015  141.9940  159.9892 C.ar    1  UNL1        0.0375
      2 C         143.5477  142.9777  159.3671 C.ar    1  UNL1        0.1031
      3 N         143.0516  143.9450  158.3337 N.ar    1  UNL1       -0.2121
      4 C         141.6092  143.9288  157.9223 C.ar    1  UNL1        0.2200
      5 N         140.6629  142.9452  158.5445 N.ar    1  UNL1       -0.2163
      6 C         141.1591  141.9778  159.5779 C.ar    1  UNL1        0.0836
      7 C         143.6853  139.7130  160.5995 C.ar    1  UNL1        0.1387
      8 C         144.1815  138.7457  161.6329 C.ar    1  UNL1        0.0369
      9 C         144.0900  139.0919  163.0895 C.ar    1  UNL1        0.0031
     10 C         143.5023  140.4055  163.5127 C.ar    1  UNL1       -0.0001
     11 C         143.0062  141.3728  162.4793 C.ar    1  UNL1        0.0031
     12 C         143.0977  141.0266  161.0227 C.ar    1  UNL1        0.0367
     13 C         143.4108  140.7517  164.9693 C.ar    1  UNL1       -0.0039
     14 C         142.9538  139.7205  165.9581 C.ar    1  UNL1       -0.0003
     15 C         142.8623  140.0667  167.4147 C.ar    1  UNL1        0.0011
     16 C         143.2278  141.4442  167.8826 C.ar    1  UNL1        0.0137
     17 C         143.6848  142.4754  166.8938 C.ar    1  UNL1       -0.0031
     18 C         143.7763  142.1292  165.4372 C.ar    1  UNL1       -0.0218
     19 C         144.2334  143.1605  164.4485 C.3     1  UNL1        0.0310
     20 C         143.1363  141.7904  169.3392 C.2     1  UNL1        0.0729
     21 O         143.0192  143.2244  169.7633 O.co2   1  UNL1       -0.5446
     22 O         143.1618  140.7027  170.3717 O.co2   1  UNL1       -0.5446
     23 C         142.6384  138.6624  158.4664 C.3     1  UNL1        0.2525
     24 O         143.7768  139.3668  159.1429 O.3     1  UNL1       -0.4714
     25 N         141.1130  144.8962  156.8889 N.pl3   1  UNL1       -0.2747
     26 C         142.0374  145.9377  156.3315 C.3     1  UNL1        0.1151
     27 C         139.6925  144.8221  156.4130 C.3     1  UNL1        0.1151
     28 C         140.2128  140.9941  160.2000 C.3     1  UNL1        0.1428
     29 N         139.6595  141.2497  161.5707 N.am    1  UNL1       -0.2380
     30 C         138.9810  142.5072  162.0272 C.2     1  UNL1        0.4055
     31 O         138.7369  143.7299  161.1933 O.2     1  UNL1       -0.2262
     32 O         138.5896  142.3273  163.4641 O.3     1  UNL1       -0.4320
     33 C         139.0262  140.9585  163.8955 C.3     1  UNL1        0.2107
     34 C         139.6874  140.2926  162.7253 C.3     1  UNL1        0.1233
     35 C         140.2735  138.9119  162.7120 C.3     1  UNL1        0.0258
     36 C         138.8351  140.3608  165.2578 C.ar    1  UNL1        0.0189
     37 C         138.0959  139.0646  165.4113 C.ar    1  UNL1       -0.0008
     38 C         137.9048  138.4669  166.7736 C.ar    1  UNL1       -0.0003
     39 C         138.4530  139.1652  167.9827 C.ar    1  UNL1        0.0038
     40 C         139.1923  140.4614  167.8293 C.ar    1  UNL1        0.0712
     41 C         139.3833  141.0591  166.4669 C.ar    1  UNL1        0.0031
     42 C         139.7405  141.1598  169.0384 C.3     1  UNL1        0.4186
     43 F         140.2887  141.8581  170.2474 F       1  UNL1       -0.1659
     44 F         140.0839  142.3513  168.1944 F       1  UNL1       -0.1659
     45 F         139.3971  139.9682  169.8823 F       1  UNL1       -0.1659
@<TRIPOS>UNITY_ATOM_ATTR
21 1
charge -1
@<TRIPOS>BOND
     1    23    24    1
     2    24     7    1
     3     7     8   ar
     4     8     9   ar
     5     9    10   ar
     6    10    13    1
     7    13    14   ar
     8    14    15   ar
     9    15    16   ar
    10    16    20    1
    11    20    21   ar
    12    20    22   ar
    13    16    17   ar
    14    17    18   ar
    15    18    19    1
    16    10    11   ar
    17    11    12   ar
    18    12     1    1
    19     1     2   ar
    20     2     3   ar
    21     3     4   ar
    22     4    25    1
    23    25    26    1
    24    25    27    1
    25     4     5   ar
    26     5     6   ar
    27     6    28    1
    28    28    29    1
    29    29    30   am
    30    30    31    2
    31    30    32    1
    32    32    33    1
    33    33    36    1
    34    36    37   ar
    35    37    38   ar
    36    38    39   ar
    37    39    40   ar
    38    40    42    1
    39    42    43    1
    40    42    44    1
    41    42    45    1
    42    40    41   ar
    43    33    34    1
    44    34    35    1
    45    12     7   ar
    46     6     1   ar
    47    34    29    1
    48    18    13   ar
    49    41    36   ar
@<TRIPOS>MOLECULE
*****
 45 49 0 0 0
SMALL
GASTEIGER

@<TRIPOS>ATOM
      1 C         140.5842  139.4411  158.1599 C.ar    1  UNL1        0.0375
      2 C         139.8256  138.7522  157.0645 C.ar    1  UNL1        0.1031
      3 N         140.5510  137.8784  156.0846 N.ar    1  UNL1       -0.2121
      4 C         142.0352  137.6935  156.2000 C.ar    1  UNL1        0.2200
      5 N         142.7938  138.3824  157.2955 N.ar    1  UNL1       -0.2163
      6 C         142.0683  139.2562  158.2754 C.ar    1  UNL1        0.0836
      7 C         139.3598  141.6642  158.7154 C.ar    1  UNL1        0.1387
      8 C         138.6343  142.5379  159.6953 C.ar    1  UNL1        0.0369
      9 C         138.4078  142.0622  161.0997 C.ar    1  UNL1        0.0031
     10 C         138.9068  140.7129  161.5242 C.ar    1  UNL1       -0.0001
     11 C         139.6322  139.8392  160.5443 C.ar    1  UNL1        0.0031
     12 C         139.8587  140.3148  159.1399 C.ar    1  UNL1        0.0367
     13 C         138.6802  140.2372  162.9287 C.ar    1  UNL1       -0.0039
     14 C         138.2161  141.2001  163.9809 C.ar    1  UNL1       -0.0003
     15 C         137.9895  140.7244  165.3854 C.ar    1  UNL1        0.0011
     16 C         138.2272  139.2859  165.7375 C.ar    1  UNL1        0.0137
     17 C         138.6914  138.3230  164.6853 C.ar    1  UNL1       -0.0031
     18 C         138.9179  138.7987  163.2808 C.ar    1  UNL1       -0.0218
     19 C         139.3821  137.8357  162.2285 C.3     1  UNL1        0.0310
     20 C         138.0007  138.8103  167.1420 C.2     1  UNL1        0.0729
     21 O         138.7735  139.4195  168.2740 O.co2   1  UNL1       -0.5446
     22 O         137.0013  137.7254  167.4144 O.co2   1  UNL1       -0.5446
     23 C         139.6982  143.6081  157.0252 C.3     1  UNL1        0.2525
     24 O         139.5863  142.1398  157.3109 O.3     1  UNL1       -0.4714
     25 N         142.7606  136.8198  155.2201 N.pl3   1  UNL1       -0.2747
     26 C         144.0503  136.1623  155.6130 C.3     1  UNL1        0.1151
     27 C         142.1963  136.6035  153.8473 C.3     1  UNL1        0.1151
     28 C         142.8269  139.9450  159.3708 C.3     1  UNL1        0.1428
     29 N         142.8180  139.3790  160.7600 N.am    1  UNL1       -0.2380
     30 C         143.0224  137.9388  161.1264 C.2     1  UNL1        0.4055
     31 O         143.2715  136.8120  160.1682 O.2     1  UNL1       -0.2262
     32 O         142.9339  137.8234  162.6194 O.3     1  UNL1       -0.4320
     33 C         142.6749  139.1923  163.1756 C.3     1  UNL1        0.2107
     34 C         142.6032  140.1536  162.0263 C.3     1  UNL1        0.1233
     35 C         142.3596  141.6303  162.1260 C.3     1  UNL1        0.0258
     36 C         142.5154  139.5389  164.6262 C.ar    1  UNL1        0.0189
     37 C         143.1303  138.6643  165.6783 C.ar    1  UNL1       -0.0008
     38 C         142.9709  139.0109  167.1289 C.ar    1  UNL1       -0.0003
     39 C         142.1965  140.2321  167.5275 C.ar    1  UNL1        0.0038
     40 C         141.5816  141.1068  166.4754 C.ar    1  UNL1        0.0712
     41 C         141.7411  140.7601  165.0248 C.ar    1  UNL1        0.0031
     42 C         140.8072  142.3281  166.8740 C.3     1  UNL1        0.4186
     43 F         140.0328  143.5493  167.2726 F       1  UNL1       -0.1659
     44 F         140.7995  142.7891  165.4467 F       1  UNL1       -0.1659
     45 F         140.8149  141.8671  168.3014 F       1  UNL1       -0.1659
@<TRIPOS>UNITY_ATOM_ATTR
21 1
charge -1
@<TRIPOS>BOND
     1    23    24    1
     2    24     7    1
     3     7     8   ar
     4     8     9   ar
     5     9    10   ar
     6    10    13    1
     7    13    14   ar
     8    14    15   ar
     9    15    16   ar
    10    16    20    1
    11    20    21   ar
    12    20    22   ar
    13    16    17   ar
    14    17    18   ar
    15    18    19    1
    16    10    11   ar
    17    11    12   ar
    18    12     1    1
    19     1     2   ar
    20     2     3   ar
    21     3     4   ar
    22     4    25    1
    23    25    26    1
    24    25    27    1
    25     4     5   ar
    26     5     6   ar
    27     6    28    1
    28    28    29    1
    29    29    30   am
    30    30    31    2
    31    30    32    1
    32    32    33    1
    33    33    36    1
    34    36    37   ar
    35    37    38   ar
    36    38    39   ar
    37    39    40   ar
    38    40    42    1
    39    42    43    1
    40    42    44    1
    41    42    45    1
    42    40    41   ar
    43    33    34    1
    44    34    35    1
    45    12     7   ar
    46     6     1   ar
    47    34    29    1
    48    18    13   ar
    49    41    36   ar
@<TRIPOS>MOLECULE
*****
 45 49 0 0 0
SMALL
GASTEIGER

@<TRIPOS>ATOM
      1 C         141.5950  138.7669  158.2178 C.ar    1  UNL1        0.0375
      2 C         141.7835  137.3718  157.7001 C.ar    1  UNL1        0.1031
      3 N         141.2366  136.9901  156.3566 N.ar    1  UNL1       -0.2121
      4 C         140.5012  138.0035  155.5307 C.ar    1  UNL1        0.2200
      5 N         140.3127  139.3987  156.0484 N.ar    1  UNL1       -0.2163
      6 C         140.8596  139.7804  157.3920 C.ar    1  UNL1        0.0836
      7 C         143.5453  139.6645  159.6810 C.ar    1  UNL1        0.1387
      8 C         144.0922  140.0461  161.0245 C.ar    1  UNL1        0.0369
      9 C         143.2357  139.9119  162.2486 C.ar    1  UNL1        0.0031
     10 C         141.8323  139.3960  162.1291 C.ar    1  UNL1       -0.0001
     11 C         141.2854  139.0144  160.7855 C.ar    1  UNL1        0.0031
     12 C         142.1420  139.1486  159.5615 C.ar    1  UNL1        0.0367
     13 C         140.9758  139.2618  163.3532 C.ar    1  UNL1       -0.0039
     14 C         139.4966  139.0554  163.2146 C.ar    1  UNL1       -0.0003
     15 C         138.6400  138.9211  164.4386 C.ar    1  UNL1        0.0011
     16 C         139.2627  138.9933  165.8013 C.ar    1  UNL1        0.0137
     17 C         140.7420  139.1998  165.9400 C.ar    1  UNL1       -0.0031
     18 C         141.5985  139.3340  164.7159 C.ar    1  UNL1       -0.0218
     19 C         143.0778  139.5405  164.8546 C.3     1  UNL1        0.0310
     20 C         138.4062  138.8591  167.0254 C.2     1  UNL1        0.0729
     21 O         138.8090  139.5381  168.3008 O.co2   1  UNL1       -0.5446
     22 O         137.1469  138.0459  166.9741 O.co2   1  UNL1       -0.5446
     23 C         144.4896  141.1153  157.7436 C.3     1  UNL1        0.2525
     24 O         144.4019  139.7987  158.4569 O.3     1  UNL1       -0.4714
     25 N         139.9543  137.6218  154.1871 N.pl3   1  UNL1       -0.2747
     26 C         140.4648  136.3955  153.4904 C.3     1  UNL1        0.1151
     27 C         138.8969  138.4665  153.5403 C.3     1  UNL1        0.1151
     28 C         140.6711  141.1755  157.9097 C.3     1  UNL1        0.1428
     29 N         139.8194  141.4175  159.1206 N.am    1  UNL1       -0.2380
     30 C         138.4115  140.9389  159.3181 C.2     1  UNL1        0.4055
     31 O         137.6082  140.1345  158.3395 O.2     1  UNL1       -0.2262
     32 O         137.9480  141.4061  160.6661 O.3     1  UNL1       -0.4320
     33 C         139.0694  142.1734  161.3016 C.3     1  UNL1        0.2107
     34 C         140.2260  142.1804  160.3464 C.3     1  UNL1        0.1233
     35 C         141.5556  142.8353  160.5765 C.3     1  UNL1        0.0258
     36 C         139.0395  142.8201  162.6546 C.ar    1  UNL1        0.0189
     37 C         137.9455  143.7864  163.0001 C.ar    1  UNL1       -0.0008
     38 C         137.9156  144.4331  164.3531 C.ar    1  UNL1       -0.0003
     39 C         138.9797  144.1135  165.3608 C.ar    1  UNL1        0.0038
     40 C         140.0739  143.1472  165.0154 C.ar    1  UNL1        0.0712
     41 C         140.1037  142.5005  163.6623 C.ar    1  UNL1        0.0031
     42 C         141.1380  142.8276  166.0231 C.3     1  UNL1        0.4186
     43 F         142.2022  142.5081  167.0308 F       1  UNL1       -0.1659
     44 F         142.1948  143.1884  165.0215 F       1  UNL1       -0.1659
     45 F         140.0813  142.4668  167.0246 F       1  UNL1       -0.1659
@<TRIPOS>UNITY_ATOM_ATTR
21 1
charge -1
@<TRIPOS>BOND
     1    23    24    1
     2    24     7    1
     3     7     8   ar
     4     8     9   ar
     5     9    10   ar
     6    10    13    1
     7    13    14   ar
     8    14    15   ar
     9    15    16   ar
    10    16    20    1
    11    20    21   ar
    12    20    22   ar
    13    16    17   ar
    14    17    18   ar
    15    18    19    1
    16    10    11   ar
    17    11    12   ar
    18    12     1    1
    19     1     2   ar
    20     2     3   ar
    21     3     4   ar
    22     4    25    1
    23    25    26    1
    24    25    27    1
    25     4     5   ar
    26     5     6   ar
    27     6    28    1
    28    28    29    1
    29    29    30   am
    30    30    31    2
    31    30    32    1
    32    32    33    1
    33    33    36    1
    34    36    37   ar
    35    37    38   ar
    36    38    39   ar
    37    39    40   ar
    38    40    42    1
    39    42    43    1
    40    42    44    1
    41    42    45    1
    42    40    41   ar
    43    33    34    1
    44    34    35    1
    45    12     7   ar
    46     6     1   ar
    47    34    29    1
    48    18    13   ar
    49    41    36   ar
@<TRIPOS>MOLECULE
*****
 45 49 0 0 0
SMALL
GASTEIGER

@<TRIPOS>ATOM
      1 C         140.4763  141.7252  158.6072 C.ar    1  UNL1        0.0375
      2 C         141.3899  141.6942  157.4179 C.ar    1  UNL1        0.1031
      3 N         141.6106  142.9379  156.6091 N.ar    1  UNL1       -0.2121
      4 C         140.9176  144.2128  156.9895 C.ar    1  UNL1        0.2200
      5 N         140.0040  144.2438  158.1787 N.ar    1  UNL1       -0.2163
      6 C         139.7833  142.9999  158.9876 C.ar    1  UNL1        0.0836
      7 C         139.3410  139.4074  158.9059 C.ar    1  UNL1        0.1387
      8 C         139.1203  138.1636  159.7148 C.ar    1  UNL1        0.0369
      9 C         139.8143  137.9937  161.0337 C.ar    1  UNL1        0.0031
     10 C         140.7289  139.0676  161.5438 C.ar    1  UNL1       -0.0001
     11 C         140.9495  140.3114  160.7349 C.ar    1  UNL1        0.0031
     12 C         140.2556  140.4813  159.4160 C.ar    1  UNL1        0.0367
     13 C         141.4228  138.8977  162.8627 C.ar    1  UNL1       -0.0039
     14 C         141.0116  137.7925  163.7897 C.ar    1  UNL1       -0.0003
     15 C         141.7055  137.6226  165.1086 C.ar    1  UNL1        0.0011
     16 C         142.8107  138.5579  165.5005 C.ar    1  UNL1        0.0137
     17 C         143.2220  139.6631  164.5736 C.ar    1  UNL1       -0.0031
     18 C         142.5281  139.8330  163.2546 C.ar    1  UNL1       -0.0218
     19 C         142.9394  140.9383  162.3276 C.3     1  UNL1        0.0310
     20 C         143.5047  138.3880  166.8195 C.2     1  UNL1        0.0729
     21 O         144.5490  137.3242  166.9860 O.co2   1  UNL1       -0.5446
     22 O         143.1543  139.2819  167.9719 O.co2   1  UNL1       -0.5446
     23 C         139.2052  138.9261  156.3564 C.3     1  UNL1        0.2525
     24 O         138.6470  139.5773  157.5870 O.3     1  UNL1       -0.4714
     25 N         141.1383  145.4566  156.1806 N.pl3   1  UNL1       -0.2747
     26 C         142.2066  145.4870  155.1281 C.3     1  UNL1        0.1151
     27 C         140.2908  146.6699  156.4244 C.3     1  UNL1        0.1151
     28 C         138.8697  143.0309  160.1768 C.3     1  UNL1        0.1428
     29 N         139.4397  142.9594  161.5625 N.am    1  UNL1       -0.2380
     30 C         140.5627  143.7973  162.0982 C.2     1  UNL1        0.4055
     31 O         141.3128  144.8536  161.3424 O.2     1  UNL1       -0.2262
     32 O         140.8038  143.3932  163.5226 O.3     1  UNL1       -0.4320
     33 C         139.8298  142.3056  163.8671 C.3     1  UNL1        0.2107
     34 C         138.9868  142.0375  162.6557 C.3     1  UNL1        0.1233
     35 C         137.8844  141.0254  162.5551 C.3     1  UNL1        0.0258
     36 C         139.7185  141.6086  165.1905 C.ar    1  UNL1        0.0189
     37 C         140.4529  142.1434  166.3841 C.ar    1  UNL1       -0.0008
     38 C         140.3415  141.4463  167.7076 C.ar    1  UNL1       -0.0003
     39 C         139.4957  140.2143  167.8375 C.ar    1  UNL1        0.0038
     40 C         138.7613  139.6794  166.6440 C.ar    1  UNL1        0.0712
     41 C         138.8727  140.3766  165.3205 C.ar    1  UNL1        0.0031
     42 C         137.9155  138.4474  166.7739 C.3     1  UNL1        0.4186
     43 F         137.0697  137.2155  166.9039 F       1  UNL1       -0.1659
     44 F         138.2564  138.0647  165.3643 F       1  UNL1       -0.1659
     45 F         137.5746  138.8302  168.1836 F       1  UNL1       -0.1659
@<TRIPOS>UNITY_ATOM_ATTR
21 1
charge -1
@<TRIPOS>BOND
     1    23    24    1
     2    24     7    1
     3     7     8   ar
     4     8     9   ar
     5     9    10   ar
     6    10    13    1
     7    13    14   ar
     8    14    15   ar
     9    15    16   ar
    10    16    20    1
    11    20    21   ar
    12    20    22   ar
    13    16    17   ar
    14    17    18   ar
    15    18    19    1
    16    10    11   ar
    17    11    12   ar
    18    12     1    1
    19     1     2   ar
    20     2     3   ar
    21     3     4   ar
    22     4    25    1
    23    25    26    1
    24    25    27    1
    25     4     5   ar
    26     5     6   ar
    27     6    28    1
    28    28    29    1
    29    29    30   am
    30    30    31    2
    31    30    32    1
    32    32    33    1
    33    33    36    1
    34    36    37   ar
    35    37    38   ar
    36    38    39   ar
    37    39    40   ar
    38    40    42    1
    39    42    43    1
    40    42    44    1
    41    42    45    1
    42    40    41   ar
    43    33    34    1
    44    34    35    1
    45    12     7   ar
    46     6     1   ar
    47    34    29    1
    48    18    13   ar
    49    41    36   ar
