@<TRIPOS>MOLECULE
*****
 29 31 0 0 0
SMALL
GASTEIGER

@<TRIPOS>ATOM
      1 C         139.6866  140.2919  165.9231 C.ar    1  UNL1        0.1525
      2 C         140.2641  139.0230  165.3697 C.ar    1  UNL1        0.1337
      3 N         139.7345  138.4551  164.0863 N.ar    1  UNL1       -0.2316
      4 C         138.6275  139.1562  163.3563 C.ar    1  UNL1        0.1420
      5 C         138.0500  140.4251  163.9097 C.ar    1  UNL1        0.1508
      6 N         136.9428  141.1262  163.1798 N.pl3   1  UNL1       -0.3410
      7 N         138.5796  140.9929  165.1931 N.ar    1  UNL1       -0.2128
      8 H         136.5953  140.7535  162.3374 H       1  UNL1        0.1438
      9 H         136.5638  141.9590  163.5430 H       1  UNL1        0.1438
     10 C         142.1905  143.0804  170.2586 C.3     1  UNL1        0.0015
     11 C         141.2753  141.9955  169.7732 C.3     1  UNL1        0.0176
     12 C         140.3242  140.8361  169.8022 C.3     1  UNL1        0.0228
     13 C         139.7946  140.2682  168.5188 C.3     1  UNL1        0.0922
     14 N         140.2162  140.8598  167.2065 N.pl3   1  UNL1       -0.2920
     15 C         141.1674  142.0192  167.1775 C.3     1  UNL1        0.0922
     16 C         141.6969  142.5871  168.4609 C.3     1  UNL1        0.0228
     17 C         141.1716  141.7807  171.2542 C.3     1  UNL1        0.0652
     18 N         142.0089  140.7292  171.9200 N.3     1  UNL1       -0.3211
     19 H         141.7201  139.8072  171.5931 H       1  UNL1        0.1189
     20 H         141.8851  140.7857  172.9309 H       1  UNL1        0.1189
     21 S         138.0979  138.5883  162.0729 S.3     1  UNL1       -0.0644
     22 C         138.5525  139.1520  160.7594 C.ar    1  UNL1        0.0423
     23 C         137.6281  140.0160  159.9537 C.ar    1  UNL1        0.0074
     24 C         138.0827  140.5797  158.6402 C.ar    1  UNL1        0.0014
     25 C         139.4617  140.2793  158.1321 C.ar    1  UNL1        0.0123
     26 C         140.3861  139.4153  158.9376 C.ar    1  UNL1        0.0687
     27 CL        141.7651  139.1150  158.4296 Cl      1  UNL1       -0.0813
     28 C         139.9315  138.8516  160.2513 C.ar    1  UNL1        0.0742
     29 CL        140.8559  137.9876  161.0568 Cl      1  UNL1       -0.0808
@<TRIPOS>BOND
     1    10    11    1
     2    11    17    1
     3    17    18    1
     4    11    12    1
     5    12    13    1
     6    13    14    1
     7    14     1    1
     8     1     2   ar
     9     2     3   ar
    10     3     4   ar
    11     4    21    1
    12    21    22    1
    13    22    23   ar
    14    23    24   ar
    15    24    25   ar
    16    25    26   ar
    17    26    27    1
    18    26    28   ar
    19    28    29    1
    20     4     5   ar
    21     5     6    1
    22     5     7   ar
    23    14    15    1
    24    15    16    1
    25    16    11    1
    26     7     1   ar
    27    28    22   ar
    28    18    19    1
    29    18    20    1
    30     6     8    1
    31     6     9    1
@<TRIPOS>MOLECULE
*****
 29 31 0 0 0
SMALL
GASTEIGER

@<TRIPOS>ATOM
      1 C         139.7613  139.7152  165.4117 C.ar    1  UNL1        0.1525
      2 C         140.3583  138.7568  164.4242 C.ar    1  UNL1        0.1337
      3 N         139.7766  138.6401  163.0466 N.ar    1  UNL1       -0.2316
      4 C         138.5979  139.4818  162.6564 C.ar    1  UNL1        0.1420
      5 C         138.0009  140.4401  163.6438 C.ar    1  UNL1        0.1508
      6 N         136.8222  141.2818  163.2536 N.pl3   1  UNL1       -0.3410
      7 N         138.5826  140.5568  165.0215 N.ar    1  UNL1       -0.2128
      8 H         136.4404  141.2052  162.3494 H       1  UNL1        0.1438
      9 H         136.4304  141.9108  163.9018 H       1  UNL1        0.1438
     10 C         142.8289  139.9665  170.2459 C.3     1  UNL1        0.0015
     11 C         141.5065  140.0653  169.5447 C.3     1  UNL1        0.0176
     12 C         140.0344  140.2606  169.3332 C.3     1  UNL1        0.0228
     13 C         139.4527  140.1438  167.9555 C.3     1  UNL1        0.0922
     14 N         140.3430  139.8319  166.7894 N.pl3   1  UNL1       -0.2920
     15 C         141.8151  139.6366  167.0009 C.3     1  UNL1        0.0922
     16 C         142.3968  139.7533  168.3786 C.3     1  UNL1        0.0228
     17 C         141.0753  140.3430  170.9544 C.3     1  UNL1        0.0652
     18 N         142.0935  140.7184  171.9899 N.3     1  UNL1       -0.3211
     19 H         142.7179  139.9289  172.1547 H       1  UNL1        0.1189
     20 H         141.6197  140.9644  172.8591 H       1  UNL1        0.1189
     21 S         138.0162  139.3650  161.2787 S.3     1  UNL1       -0.0644
     22 C         138.8759  139.6242  160.0771 C.ar    1  UNL1        0.0423
     23 C         139.5534  138.4823  159.3793 C.ar    1  UNL1        0.0074
     24 C         140.4131  138.7415  158.1777 C.ar    1  UNL1        0.0014
     25 C         140.5953  140.1425  157.6740 C.ar    1  UNL1        0.0123
     26 C         139.9178  141.2845  158.3718 C.ar    1  UNL1        0.0687
     27 CL        140.0999  142.6856  157.8681 Cl      1  UNL1       -0.0813
     28 C         139.0580  141.0253  159.5734 C.ar    1  UNL1        0.0742
     29 CL        138.3805  142.1672  160.2712 Cl      1  UNL1       -0.0808
@<TRIPOS>BOND
     1    10    11    1
     2    11    17    1
     3    17    18    1
     4    11    12    1
     5    12    13    1
     6    13    14    1
     7    14     1    1
     8     1     2   ar
     9     2     3   ar
    10     3     4   ar
    11     4    21    1
    12    21    22    1
    13    22    23   ar
    14    23    24   ar
    15    24    25   ar
    16    25    26   ar
    17    26    27    1
    18    26    28   ar
    19    28    29    1
    20     4     5   ar
    21     5     6    1
    22     5     7   ar
    23    14    15    1
    24    15    16    1
    25    16    11    1
    26     7     1   ar
    27    28    22   ar
    28    18    19    1
    29    18    20    1
    30     6     8    1
    31     6     9    1
@<TRIPOS>MOLECULE
*****
 29 31 0 0 0
SMALL
GASTEIGER

@<TRIPOS>ATOM
      1 C         139.8522  140.1407  165.6448 C.ar    1  UNL1        0.1525
      2 C         138.7779  140.6361  164.7225 C.ar    1  UNL1        0.1337
      3 N         138.5314  139.9408  163.4164 N.ar    1  UNL1       -0.2316
      4 C         139.3591  138.7503  163.0326 C.ar    1  UNL1        0.1420
      5 C         140.4333  138.2549  163.9548 C.ar    1  UNL1        0.1508
      6 N         141.2611  137.0643  163.5710 N.pl3   1  UNL1       -0.3410
      7 N         140.6799  138.9502  165.2609 N.ar    1  UNL1       -0.2128
      8 H         141.0993  136.6080  162.7138 H       1  UNL1        0.1438
      9 H         141.9662  136.7392  164.1763 H       1  UNL1        0.1438
     10 C         140.8884  143.5962  170.0976 C.3     1  UNL1        0.0015
     11 C         140.5918  142.2264  169.5630 C.3     1  UNL1        0.0176
     12 C         140.3233  140.7509  169.5378 C.3     1  UNL1        0.0228
     13 C         140.0767  140.0557  168.2317 C.3     1  UNL1        0.0922
     14 N         140.0987  140.8360  166.9509 N.pl3   1  UNL1       -0.2920
     15 C         140.3672  142.3115  166.9761 C.3     1  UNL1        0.0922
     16 C         140.6137  143.0067  168.2822 C.3     1  UNL1        0.0228
     17 C         140.6728  141.9218  171.0296 C.3     1  UNL1        0.0652
     18 N         141.9290  142.2266  171.7906 N.3     1  UNL1       -0.3211
     19 H         142.6851  141.6323  171.4507 H       1  UNL1        0.1189
     20 H         141.7768  142.0488  172.7833 H       1  UNL1        0.1189
     21 S         139.1125  138.0551  161.7265 S.3     1  UNL1       -0.0644
     22 C         139.5214  138.7089  160.4399 C.ar    1  UNL1        0.0423
     23 C         140.9044  138.4990  159.8983 C.ar    1  UNL1        0.0074
     24 C         141.3132  139.1528  158.6117 C.ar    1  UNL1        0.0014
     25 C         140.3391  140.0166  157.8667 C.ar    1  UNL1        0.0123
     26 C         138.9562  140.2265  158.4083 C.ar    1  UNL1        0.0687
     27 CL        137.9821  141.0903  157.6633 Cl      1  UNL1       -0.0813
     28 C         138.5473  139.5727  159.6949 C.ar    1  UNL1        0.0742
     29 CL        137.1643  139.7826  160.2365 Cl      1  UNL1       -0.0808
@<TRIPOS>BOND
     1    10    11    1
     2    11    17    1
     3    17    18    1
     4    11    12    1
     5    12    13    1
     6    13    14    1
     7    14     1    1
     8     1     2   ar
     9     2     3   ar
    10     3     4   ar
    11     4    21    1
    12    21    22    1
    13    22    23   ar
    14    23    24   ar
    15    24    25   ar
    16    25    26   ar
    17    26    27    1
    18    26    28   ar
    19    28    29    1
    20     4     5   ar
    21     5     6    1
    22     5     7   ar
    23    14    15    1
    24    15    16    1
    25    16    11    1
    26     7     1   ar
    27    28    22   ar
    28    18    19    1
    29    18    20    1
    30     6     8    1
    31     6     9    1
@<TRIPOS>MOLECULE
*****
 29 31 0 0 0
SMALL
GASTEIGER

@<TRIPOS>ATOM
      1 C         139.5422  141.8734  165.0767 C.ar    1  UNL1        0.1525
      2 C         140.0602  140.9228  164.0385 C.ar    1  UNL1        0.1337
      3 N         139.7133  141.1282  162.5937 N.ar    1  UNL1       -0.2316
      4 C         138.8483  142.2842  162.1871 C.ar    1  UNL1        0.1420
      5 C         138.3302  143.2348  163.2253 C.ar    1  UNL1        0.1508
      6 N         137.4652  144.3909  162.8188 N.pl3   1  UNL1       -0.3410
      7 N         138.6772  143.0294  164.6701 N.ar    1  UNL1       -0.2128
      8 H         137.2374  144.5258  161.8705 H       1  UNL1        0.1438
      9 H         137.1252  145.0149  163.5002 H       1  UNL1        0.1438
     10 C         140.5065  140.1996  170.4721 C.3     1  UNL1        0.0015
     11 C         140.5830  141.2572  169.4111 C.3     1  UNL1        0.0176
     12 C         140.8707  142.5728  168.7504 C.3     1  UNL1        0.0228
     13 C         140.5238  142.7782  167.3056 C.3     1  UNL1        0.0922
     14 N         139.8891  141.6680  166.5215 N.pl3   1  UNL1       -0.2920
     15 C         139.6015  140.3525  167.1822 C.3     1  UNL1        0.0922
     16 C         139.9484  140.1471  168.6270 C.3     1  UNL1        0.0228
     17 C         141.1911  142.0001  170.5637 C.3     1  UNL1        0.0652
     18 N         140.4289  142.1469  171.8472 N.3     1  UNL1       -0.3211
     19 H         139.6034  142.7246  171.6883 H       1  UNL1        0.1189
     20 H         141.0241  142.5897  172.5473 H       1  UNL1        0.1189
     21 S         138.5013  142.4896  160.7423 S.3     1  UNL1       -0.0644
     22 C         139.3939  143.3187  159.8672 C.ar    1  UNL1        0.0423
     23 C         140.4259  144.2157  160.4840 C.ar    1  UNL1        0.0074
     24 C         141.3185  145.0447  159.6088 C.ar    1  UNL1        0.0014
     25 C         141.1792  144.9768  158.1169 C.ar    1  UNL1        0.0123
     26 C         140.1473  144.0798  157.5001 C.ar    1  UNL1        0.0687
     27 CL        140.0080  144.0118  156.0081 Cl      1  UNL1       -0.0813
     28 C         139.2546  143.2507  158.3752 C.ar    1  UNL1        0.0742
     29 CL        138.2227  142.3537  157.7584 Cl      1  UNL1       -0.0808
@<TRIPOS>BOND
     1    10    11    1
     2    11    17    1
     3    17    18    1
     4    11    12    1
     5    12    13    1
     6    13    14    1
     7    14     1    1
     8     1     2   ar
     9     2     3   ar
    10     3     4   ar
    11     4    21    1
    12    21    22    1
    13    22    23   ar
    14    23    24   ar
    15    24    25   ar
    16    25    26   ar
    17    26    27    1
    18    26    28   ar
    19    28    29    1
    20     4     5   ar
    21     5     6    1
    22     5     7   ar
    23    14    15    1
    24    15    16    1
    25    16    11    1
    26     7     1   ar
    27    28    22   ar
    28    18    19    1
    29    18    20    1
    30     6     8    1
    31     6     9    1
@<TRIPOS>MOLECULE
*****
 29 31 0 0 0
SMALL
GASTEIGER

@<TRIPOS>ATOM
      1 C         140.7002  144.1798  160.0052 C.ar    1  UNL1        0.1525
      2 C         139.9955  143.0978  160.7685 C.ar    1  UNL1        0.1337
      3 N         140.4828  142.7018  162.1308 N.ar    1  UNL1       -0.2316
      4 C         141.6748  143.3876  162.7297 C.ar    1  UNL1        0.1420
      5 C         142.3795  144.4696  161.9663 C.ar    1  UNL1        0.1508
      6 N         143.5716  145.1555  162.5652 N.pl3   1  UNL1       -0.3410
      7 N         141.8922  144.8656  160.6041 N.ar    1  UNL1       -0.2128
      8 H         143.8914  144.8956  163.4593 H       1  UNL1        0.1438
      9 H         144.0341  145.8656  162.0642 H       1  UNL1        0.1438
     10 C         139.2261  146.5562  155.0031 C.3     1  UNL1        0.0015
     11 C         139.2384  145.3680  155.9185 C.3     1  UNL1        0.0176
     12 C         138.9957  143.9779  156.4270 C.3     1  UNL1        0.0228
     13 C         139.4829  143.5818  157.7892 C.3     1  UNL1        0.0922
     14 N         140.2130  144.5758  158.6430 N.pl3   1  UNL1       -0.2920
     15 C         140.4557  145.9660  158.1345 C.3     1  UNL1        0.0922
     16 C         139.9684  146.3620  156.7722 C.3     1  UNL1        0.0228
     17 C         138.5041  144.7866  154.7468 C.3     1  UNL1        0.0652
     18 N         137.1033  145.2298  154.4446 N.3     1  UNL1       -0.3211
     19 H         136.4831  144.9343  155.1985 H       1  UNL1        0.1189
     20 H         136.7958  144.8104  153.5671 H       1  UNL1        0.1189
     21 S         142.1621  142.9915  164.0919 S.3     1  UNL1       -0.0644
     22 C         143.0615  141.8016  164.2500 C.ar    1  UNL1        0.0423
     23 C         144.4901  141.8760  163.7985 C.ar    1  UNL1        0.0074
     24 C         145.3895  140.6861  163.9567 C.ar    1  UNL1        0.0014
     25 C         144.8605  139.4218  164.5663 C.ar    1  UNL1        0.0123
     26 C         143.4320  139.3474  165.0178 C.ar    1  UNL1        0.0687
     27 CL        142.9030  138.0831  165.6274 Cl      1  UNL1       -0.0813
     28 C         142.5325  140.5373  164.8597 C.ar    1  UNL1        0.0742
     29 CL        141.1040  140.4629  165.3111 Cl      1  UNL1       -0.0808
@<TRIPOS>BOND
     1    10    11    1
     2    11    17    1
     3    17    18    1
     4    11    12    1
     5    12    13    1
     6    13    14    1
     7    14     1    1
     8     1     2   ar
     9     2     3   ar
    10     3     4   ar
    11     4    21    1
    12    21    22    1
    13    22    23   ar
    14    23    24   ar
    15    24    25   ar
    16    25    26   ar
    17    26    27    1
    18    26    28   ar
    19    28    29    1
    20     4     5   ar
    21     5     6    1
    22     5     7   ar
    23    14    15    1
    24    15    16    1
    25    16    11    1
    26     7     1   ar
    27    28    22   ar
    28    18    19    1
    29    18    20    1
    30     6     8    1
    31     6     9    1
@<TRIPOS>MOLECULE
*****
 29 31 0 0 0
SMALL
GASTEIGER

@<TRIPOS>ATOM
      1 C         144.2370  142.2196  159.4755 C.ar    1  UNL1        0.1525
      2 C         143.1646  143.2621  159.5898 C.ar    1  UNL1        0.1337
      3 N         142.9293  143.9557  160.8988 N.ar    1  UNL1       -0.2316
      4 C         143.7664  143.6068  162.0936 C.ar    1  UNL1        0.1420
      5 C         144.8388  142.5643  161.9793 C.ar    1  UNL1        0.1508
      6 N         145.6760  142.2154  163.1741 N.pl3   1  UNL1       -0.3410
      7 N         145.0741  141.8707  160.6703 N.ar    1  UNL1       -0.2128
      8 H         145.5216  142.6706  164.0332 H       1  UNL1        0.1438
      9 H         146.3799  141.5311  163.0991 H       1  UNL1        0.1438
     10 C         145.7448  140.2990  154.2909 C.3     1  UNL1        0.0015
     11 C         144.9428  140.1388  155.5484 C.3     1  UNL1        0.0176
     12 C         143.9876  139.5539  156.5461 C.3     1  UNL1        0.0228
     13 C         143.7523  140.2475  157.8551 C.3     1  UNL1        0.0922
     14 N         144.4723  141.5260  158.1665 N.pl3   1  UNL1       -0.2920
     15 C         145.4275  142.1109  157.1689 C.3     1  UNL1        0.0922
     16 C         145.6628  141.4173  155.8598 C.3     1  UNL1        0.0228
     17 C         144.5014  138.9159  154.8003 C.3     1  UNL1        0.0652
     18 N         144.9034  137.5544  155.2848 N.3     1  UNL1       -0.3211
     19 H         145.9146  137.4492  155.2024 H       1  UNL1        0.1189
     20 H         144.4403  136.8422  154.7203 H       1  UNL1        0.1189
     21 S         143.5311  144.3004  163.4026 S.3     1  UNL1       -0.0644
     22 C         142.3975  143.8708  164.2859 C.ar    1  UNL1        0.0423
     23 C         142.6116  142.7988  165.3131 C.ar    1  UNL1        0.0074
     24 C         141.4779  142.3692  166.1963 C.ar    1  UNL1        0.0014
     25 C         140.1301  143.0116  166.0525 C.ar    1  UNL1        0.0123
     26 C         139.9159  144.0835  165.0254 C.ar    1  UNL1        0.0687
     27 CL        138.5681  144.7259  164.8815 Cl      1  UNL1       -0.0813
     28 C         141.0496  144.5132  164.1420 C.ar    1  UNL1        0.0742
     29 CL        140.8355  145.5851  163.1149 Cl      1  UNL1       -0.0808
@<TRIPOS>BOND
     1    10    11    1
     2    11    17    1
     3    17    18    1
     4    11    12    1
     5    12    13    1
     6    13    14    1
     7    14     1    1
     8     1     2   ar
     9     2     3   ar
    10     3     4   ar
    11     4    21    1
    12    21    22    1
    13    22    23   ar
    14    23    24   ar
    15    24    25   ar
    16    25    26   ar
    17    26    27    1
    18    26    28   ar
    19    28    29    1
    20     4     5   ar
    21     5     6    1
    22     5     7   ar
    23    14    15    1
    24    15    16    1
    25    16    11    1
    26     7     1   ar
    27    28    22   ar
    28    18    19    1
    29    18    20    1
    30     6     8    1
    31     6     9    1
@<TRIPOS>MOLECULE
*****
 29 31 0 0 0
SMALL
GASTEIGER

@<TRIPOS>ATOM
      1 C         140.1312  141.8718  165.7670 C.ar    1  UNL1        0.1525
      2 C         140.8106  142.9801  165.0187 C.ar    1  UNL1        0.1337
      3 N         140.2321  143.4779  163.7274 N.ar    1  UNL1       -0.2316
      4 C         138.9742  142.8674  163.1844 C.ar    1  UNL1        0.1420
      5 C         138.2948  141.7591  163.9327 C.ar    1  UNL1        0.1508
      6 N         137.0368  141.1485  163.3897 N.pl3   1  UNL1       -0.3410
      7 N         138.8733  141.2613  165.2240 N.ar    1  UNL1       -0.2128
      8 H         136.6571  141.4752  162.5421 H       1  UNL1        0.1438
      9 H         136.5909  140.4211  163.8808 H       1  UNL1        0.1438
     10 C         142.6798  139.2345  170.1706 C.3     1  UNL1        0.0015
     11 C         141.8667  140.3784  169.6410 C.3     1  UNL1        0.0176
     12 C         141.0790  141.6546  169.6147 C.3     1  UNL1        0.0228
     13 C         140.5005  142.1524  168.3234 C.3     1  UNL1        0.0922
     14 N         140.7097  141.3740  167.0584 N.pl3   1  UNL1       -0.2920
     15 C         141.4974  140.0978  167.0847 C.3     1  UNL1        0.0922
     16 C         142.0759  139.5999  168.3760 C.3     1  UNL1        0.0228
     17 C         141.9398  140.7595  171.0900 C.3     1  UNL1        0.0652
     18 N         140.7152  140.6710  171.9515 N.3     1  UNL1       -0.3211
     19 H         140.0243  141.3495  171.6312 H       1  UNL1        0.1189
     20 H         140.9654  140.8717  172.9198 H       1  UNL1        0.1189
     21 S         138.3957  143.3652  161.8931 S.3     1  UNL1       -0.0644
     22 C         139.1733  143.2223  160.6184 C.ar    1  UNL1        0.0423
     23 C         139.0960  141.9476  159.8314 C.ar    1  UNL1        0.0074
     24 C         139.8736  141.8048  158.5568 C.ar    1  UNL1        0.0014
     25 C         140.7287  142.9366  158.0690 C.ar    1  UNL1        0.0123
     26 C         140.8061  144.2112  158.8559 C.ar    1  UNL1        0.0687
     27 CL        141.6612  145.3430  158.3682 Cl      1  UNL1       -0.0813
     28 C         140.0284  144.3541  160.1306 C.ar    1  UNL1        0.0742
     29 CL        140.1058  145.6288  160.9175 Cl      1  UNL1       -0.0808
@<TRIPOS>BOND
     1    10    11    1
     2    11    17    1
     3    17    18    1
     4    11    12    1
     5    12    13    1
     6    13    14    1
     7    14     1    1
     8     1     2   ar
     9     2     3   ar
    10     3     4   ar
    11     4    21    1
    12    21    22    1
    13    22    23   ar
    14    23    24   ar
    15    24    25   ar
    16    25    26   ar
    17    26    27    1
    18    26    28   ar
    19    28    29    1
    20     4     5   ar
    21     5     6    1
    22     5     7   ar
    23    14    15    1
    24    15    16    1
    25    16    11    1
    26     7     1   ar
    27    28    22   ar
    28    18    19    1
    29    18    20    1
    30     6     8    1
    31     6     9    1
@<TRIPOS>MOLECULE
*****
 29 31 0 0 0
SMALL
GASTEIGER

@<TRIPOS>ATOM
      1 C         142.8246  142.3954  165.2601 C.ar    1  UNL1        0.1525
      2 C         142.9690  141.1664  164.4124 C.ar    1  UNL1        0.1337
      3 N         143.4588  141.2832  162.9994 N.ar    1  UNL1       -0.2316
      4 C         143.8042  142.6289  162.4342 C.ar    1  UNL1        0.1420
      5 C         143.6598  143.8579  163.2819 C.ar    1  UNL1        0.1508
      6 N         144.0053  145.2038  162.7167 N.pl3   1  UNL1       -0.3410
      7 N         143.1700  143.7412  164.6949 N.ar    1  UNL1       -0.2128
      8 H         144.3268  145.2804  161.7893 H       1  UNL1        0.1438
      9 H         143.9105  146.0104  163.2731 H       1  UNL1        0.1438
     10 C         140.0791  141.8363  170.2592 C.3     1  UNL1        0.0015
     11 C         141.3552  142.0451  169.4990 C.3     1  UNL1        0.0176
     12 C         142.8138  142.2644  169.2266 C.3     1  UNL1        0.0228
     13 C         143.3036  142.3812  167.8136 C.3     1  UNL1        0.0922
     14 N         142.3348  142.2786  166.6731 N.pl3   1  UNL1       -0.2920
     15 C         140.8762  142.0594  166.9455 C.3     1  UNL1        0.0922
     16 C         140.3864  141.9426  168.3585 C.3     1  UNL1        0.0228
     17 C         141.8809  142.0751  170.9036 C.3     1  UNL1        0.0652
     18 N         141.9276  140.8137  171.7139 N.3     1  UNL1       -0.3211
     19 H         140.9773  140.4900  171.8942 H       1  UNL1        0.1189
     20 H         142.3985  140.9962  172.6002 H       1  UNL1        0.1189
     21 S         144.2940  142.7457  161.0212 S.3     1  UNL1       -0.0644
     22 C         143.3153  142.9450  159.9022 C.ar    1  UNL1        0.0423
     23 C         141.8703  143.2079  160.2075 C.ar    1  UNL1        0.0074
     24 C         140.8916  143.4072  159.0885 C.ar    1  UNL1        0.0014
     25 C         141.3576  143.3436  157.6641 C.ar    1  UNL1        0.0123
     26 C         142.8025  143.0807  157.3588 C.ar    1  UNL1        0.0687
     27 CL        143.2686  143.0171  155.9345 Cl      1  UNL1       -0.0813
     28 C         143.7813  142.8814  158.4779 C.ar    1  UNL1        0.0742
     29 CL        145.2262  142.6185  158.1726 Cl      1  UNL1       -0.0808
@<TRIPOS>BOND
     1    10    11    1
     2    11    17    1
     3    17    18    1
     4    11    12    1
     5    12    13    1
     6    13    14    1
     7    14     1    1
     8     1     2   ar
     9     2     3   ar
    10     3     4   ar
    11     4    21    1
    12    21    22    1
    13    22    23   ar
    14    23    24   ar
    15    24    25   ar
    16    25    26   ar
    17    26    27    1
    18    26    28   ar
    19    28    29    1
    20     4     5   ar
    21     5     6    1
    22     5     7   ar
    23    14    15    1
    24    15    16    1
    25    16    11    1
    26     7     1   ar
    27    28    22   ar
    28    18    19    1
    29    18    20    1
    30     6     8    1
    31     6     9    1
@<TRIPOS>MOLECULE
*****
 29 31 0 0 0
SMALL
GASTEIGER

@<TRIPOS>ATOM
      1 C         140.0753  142.6953  165.0403 C.ar    1  UNL1        0.1525
      2 C         139.5313  141.8274  163.9445 C.ar    1  UNL1        0.1337
      3 N         139.5297  142.3207  162.5279 N.ar    1  UNL1       -0.2316
      4 C         140.0723  143.6818  162.2071 C.ar    1  UNL1        0.1420
      5 C         140.6164  144.5496  163.3029 C.ar    1  UNL1        0.1508
      6 N         141.1590  145.9108  162.9821 N.pl3   1  UNL1       -0.3410
      7 N         140.6179  144.0564  164.7194 N.ar    1  UNL1       -0.2128
      8 H         141.1581  146.2345  162.0523 H       1  UNL1        0.1438
      9 H         141.5161  146.4804  163.7013 H       1  UNL1        0.1438
     10 C         139.8109  139.9635  170.0711 C.3     1  UNL1        0.0015
     11 C         140.0799  141.2155  169.2900 C.3     1  UNL1        0.0176
     12 C         140.4430  142.6399  168.9914 C.3     1  UNL1        0.0228
     13 C         140.4415  143.1332  167.5748 C.3     1  UNL1        0.0922
     14 N         140.0768  142.2020  166.4568 N.pl3   1  UNL1       -0.2920
     15 C         139.7137  140.7776  166.7554 C.3     1  UNL1        0.0922
     16 C         139.7152  140.2844  168.1720 C.3     1  UNL1        0.0228
     17 C         140.3511  141.7119  170.6793 C.3     1  UNL1        0.0652
     18 N         139.6625  142.9458  171.1827 N.3     1  UNL1       -0.3211
     19 H         139.9796  143.7543  170.6476 H       1  UNL1        0.1189
     20 H         139.8860  143.0817  172.1686 H       1  UNL1        0.1189
     21 S         140.0708  144.1750  160.7905 S.3     1  UNL1       -0.0644
     22 C         141.2352  143.8796  159.8923 C.ar    1  UNL1        0.0423
     23 C         142.3619  143.0195  160.3832 C.ar    1  UNL1        0.0074
     24 C         143.5263  142.7241  159.4849 C.ar    1  UNL1        0.0014
     25 C         143.5640  143.2887  158.0957 C.ar    1  UNL1        0.0123
     26 C         142.4374  144.1487  157.6048 C.ar    1  UNL1        0.0687
     27 CL        142.4751  144.7133  156.2156 Cl      1  UNL1       -0.0813
     28 C         141.2729  144.4442  158.5031 C.ar    1  UNL1        0.0742
     29 CL        140.1463  145.3042  158.0121 Cl      1  UNL1       -0.0808
@<TRIPOS>BOND
     1    10    11    1
     2    11    17    1
     3    17    18    1
     4    11    12    1
     5    12    13    1
     6    13    14    1
     7    14     1    1
     8     1     2   ar
     9     2     3   ar
    10     3     4   ar
    11     4    21    1
    12    21    22    1
    13    22    23   ar
    14    23    24   ar
    15    24    25   ar
    16    25    26   ar
    17    26    27    1
    18    26    28   ar
    19    28    29    1
    20     4     5   ar
    21     5     6    1
    22     5     7   ar
    23    14    15    1
    24    15    16    1
    25    16    11    1
    26     7     1   ar
    27    28    22   ar
    28    18    19    1
    29    18    20    1
    30     6     8    1
    31     6     9    1
