@<TRIPOS>MOLECULE
*****
 22 23 0 0 0
SMALL
GASTEIGER

@<TRIPOS>ATOM
      1 N         140.4495  141.0438  166.6389 N.am    1  UNL1       -0.2763
      2 C         140.1795  142.5191  166.6165 C.2     1  UNL1        0.2499
      3 O         140.3205  143.3266  167.8727 O.2     1  UNL1       -0.2699
      4 C         139.7686  143.1870  165.3378 C.ar    1  UNL1        0.0650
      5 C         138.3138  143.3409  165.0059 C.ar    1  UNL1        0.0054
      6 C         137.9029  144.0088  163.7272 C.ar    1  UNL1        0.0011
      7 C         138.9467  144.5227  162.7804 C.ar    1  UNL1        0.0123
      8 C         140.4014  144.3688  163.1123 C.ar    1  UNL1        0.0683
      9 CL        141.4452  144.8828  162.1655 Cl      1  UNL1       -0.0814
     10 C         140.8123  143.7009  164.3910 C.ar    1  UNL1        0.0725
     11 CL        142.2671  143.5470  164.7229 Cl      1  UNL1       -0.0812
     12 C         140.8604  140.3759  167.9176 C.3     1  UNL1        0.0927
     13 C         142.2249  139.8384  168.2327 C.3     1  UNL1        0.0383
     14 C         142.1868  139.2585  169.6155 C.3     1  UNL1        0.0704
     15 N         140.7988  139.4376  170.1552 N.3     1  UNL1       -0.2960
     16 C         139.9790  140.1282  169.1058 C.3     1  UNL1        0.0887
     17 H         140.8271  140.0059  171.0017 H       1  UNL1        0.1233
     18 C         140.3085  140.2363  165.3826 C.3     1  UNL1        0.0936
     19 C         138.2836  139.6805  165.6836 C.3     1  UNL1        0.0017
     20 C         139.5571  138.9383  165.4057 C.3     1  UNL1        0.0183
     21 C         140.8306  138.1961  165.1277 C.3     1  UNL1        0.0017
     22 C         138.8056  137.6404  165.4288 C.3     1  UNL1        0.0017
@<TRIPOS>BOND
     1    19    20    1
     2    20    21    1
     3    20    22    1
     4    20    18    1
     5    18     1    1
     6     1     2   am
     7     2     3    2
     8     2     4    1
     9     4     5   ar
    10     5     6   ar
    11     6     7   ar
    12     7     8   ar
    13     8     9    1
    14     8    10   ar
    15    10    11    1
    16    12     1    1
    17    12    13    1
    18    13    14    1
    19    14    15    1
    20    15    16    1
    21    10     4   ar
    22    16    12    1
    23    15    17    1
@<TRIPOS>MOLECULE
*****
 22 23 0 0 0
SMALL
GASTEIGER

@<TRIPOS>ATOM
      1 N         140.3277  140.3634  167.5891 N.am    1  UNL1       -0.2763
      2 C         139.1459  139.5598  167.1337 C.2     1  UNL1        0.2499
      3 O         138.0922  139.1505  168.1198 O.2     1  UNL1       -0.2699
      4 C         139.0176  139.1654  165.6921 C.ar    1  UNL1        0.0650
      5 C         139.4068  137.7843  165.2549 C.ar    1  UNL1        0.0054
      6 C         139.2785  137.3900  163.8133 C.ar    1  UNL1        0.0011
      7 C         138.7610  138.3767  162.8090 C.ar    1  UNL1        0.0123
      8 C         138.3717  139.7577  163.2463 C.ar    1  UNL1        0.0683
      9 CL        137.8542  140.7445  162.2420 Cl      1  UNL1       -0.0814
     10 C         138.5000  140.1521  164.6878 C.ar    1  UNL1        0.0725
     11 CL        138.1108  141.5332  165.1251 Cl      1  UNL1       -0.0812
     12 C         140.4560  140.7577  169.0306 C.3     1  UNL1        0.0927
     13 C         140.4442  142.1589  169.5658 C.3     1  UNL1        0.0383
     14 C         140.5995  142.0873  171.0560 C.3     1  UNL1        0.0704
     15 N         140.7073  140.6418  171.4418 N.3     1  UNL1       -0.2960
     16 C         140.6186  139.8201  170.1901 C.3     1  UNL1        0.0887
     17 H         139.9454  140.3943  172.0731 H       1  UNL1        0.1233
     18 C         141.3813  140.7727  166.6029 C.3     1  UNL1        0.0936
     19 C         142.0984  140.2060  164.6886 C.3     1  UNL1        0.0017
     20 C         142.3672  139.7622  166.0960 C.3     1  UNL1        0.0183
     21 C         142.6360  139.3185  167.5034 C.3     1  UNL1        0.0017
     22 C         143.3531  138.7518  165.5892 C.3     1  UNL1        0.0017
@<TRIPOS>BOND
     1    19    20    1
     2    20    21    1
     3    20    22    1
     4    20    18    1
     5    18     1    1
     6     1     2   am
     7     2     3    2
     8     2     4    1
     9     4     5   ar
    10     5     6   ar
    11     6     7   ar
    12     7     8   ar
    13     8     9    1
    14     8    10   ar
    15    10    11    1
    16    12     1    1
    17    12    13    1
    18    13    14    1
    19    14    15    1
    20    15    16    1
    21    10     4   ar
    22    16    12    1
    23    15    17    1
@<TRIPOS>MOLECULE
*****
 22 23 0 0 0
SMALL
GASTEIGER

@<TRIPOS>ATOM
      1 N         142.2683  139.9888  167.0398 N.am    1  UNL1       -0.2763
      2 C         142.9069  138.7884  166.4064 C.2     1  UNL1        0.2499
      3 O         143.8600  137.9413  167.1964 O.2     1  UNL1       -0.2699
      4 C         142.5925  138.4351  164.9829 C.ar    1  UNL1        0.0650
      5 C         141.4425  137.5232  164.6729 C.ar    1  UNL1        0.0054
      6 C         141.1281  137.1699  163.2494 C.ar    1  UNL1        0.0011
      7 C         141.9636  137.7286  162.1359 C.ar    1  UNL1        0.0123
      8 C         143.1135  138.6405  162.4459 C.ar    1  UNL1        0.0683
      9 CL        143.9490  139.1993  161.3324 Cl      1  UNL1       -0.0814
     10 C         143.4279  138.9938  163.8694 C.ar    1  UNL1        0.0725
     11 CL        144.5778  139.9058  164.1793 Cl      1  UNL1       -0.0812
     12 C         142.5828  140.3420  168.4633 C.3     1  UNL1        0.0927
     13 C         142.4130  139.4440  169.6528 C.3     1  UNL1        0.0383
     14 C         142.8475  140.2023  170.8719 C.3     1  UNL1        0.0704
     15 N         143.2858  141.5690  170.4359 N.3     1  UNL1       -0.2960
     16 C         143.1221  141.6553  168.9473 C.3     1  UNL1        0.0887
     17 H         144.2639  141.7150  170.6857 H       1  UNL1        0.1233
     18 C         141.3152  140.8359  166.2498 C.3     1  UNL1        0.0936
     19 C         140.0645  140.7598  164.5382 C.3     1  UNL1        0.0017
     20 C         139.9262  140.3424  165.9723 C.3     1  UNL1        0.0183
     21 C         139.7880  139.9250  167.4063 C.3     1  UNL1        0.0017
     22 C         138.5373  139.8489  165.6947 C.3     1  UNL1        0.0017
@<TRIPOS>BOND
     1    19    20    1
     2    20    21    1
     3    20    22    1
     4    20    18    1
     5    18     1    1
     6     1     2   am
     7     2     3    2
     8     2     4    1
     9     4     5   ar
    10     5     6   ar
    11     6     7   ar
    12     7     8   ar
    13     8     9    1
    14     8    10   ar
    15    10    11    1
    16    12     1    1
    17    12    13    1
    18    13    14    1
    19    14    15    1
    20    15    16    1
    21    10     4   ar
    22    16    12    1
    23    15    17    1
@<TRIPOS>MOLECULE
*****
 22 23 0 0 0
SMALL
GASTEIGER

@<TRIPOS>ATOM
      1 N         141.2774  142.9240  165.2430 N.am    1  UNL1       -0.2763
      2 C         142.0097  141.9060  166.0659 C.2     1  UNL1        0.2499
      3 O         143.3838  141.4615  165.6603 O.2     1  UNL1       -0.2699
      4 C         141.3681  141.3323  167.2943 C.ar    1  UNL1        0.0650
      5 C         140.1595  140.4528  167.1681 C.ar    1  UNL1        0.0054
      6 C         139.5178  139.8791  168.3966 C.ar    1  UNL1        0.0011
      7 C         140.0847  140.1850  169.7513 C.ar    1  UNL1        0.0123
      8 C         141.2933  141.0644  169.8775 C.ar    1  UNL1        0.0683
      9 CL        141.8602  141.3702  171.2322 Cl      1  UNL1       -0.0814
     10 C         141.9349  141.6381  168.6490 C.ar    1  UNL1        0.0725
     11 CL        143.1436  142.5175  168.7752 Cl      1  UNL1       -0.0812
     12 C         141.9191  143.4977  164.0145 C.3     1  UNL1        0.0927
     13 C         141.9856  142.8426  162.6668 C.3     1  UNL1        0.0383
     14 C         142.7145  143.7672  161.7374 C.3     1  UNL1        0.0704
     15 N         143.0986  144.9938  162.5107 N.3     1  UNL1       -0.2960
     16 C         142.6070  144.8272  163.9181 C.3     1  UNL1        0.0887
     17 H         142.6690  145.8173  162.0892 H       1  UNL1        0.1233
     18 C         139.9033  143.3685  165.6486 C.3     1  UNL1        0.0936
     19 C         138.7531  142.0773  164.4200 C.3     1  UNL1        0.0017
     20 C         138.8404  143.5628  164.6083 C.3     1  UNL1        0.0183
     21 C         138.9276  145.0484  164.7966 C.3     1  UNL1        0.0017
     22 C         137.7774  143.7571  163.5680 C.3     1  UNL1        0.0017
@<TRIPOS>BOND
     1    19    20    1
     2    20    21    1
     3    20    22    1
     4    20    18    1
     5    18     1    1
     6     1     2   am
     7     2     3    2
     8     2     4    1
     9     4     5   ar
    10     5     6   ar
    11     6     7   ar
    12     7     8   ar
    13     8     9    1
    14     8    10   ar
    15    10    11    1
    16    12     1    1
    17    12    13    1
    18    13    14    1
    19    14    15    1
    20    15    16    1
    21    10     4   ar
    22    16    12    1
    23    15    17    1
@<TRIPOS>MOLECULE
*****
 22 23 0 0 0
SMALL
GASTEIGER

@<TRIPOS>ATOM
      1 N         142.0424  139.4283  165.5311 N.am    1  UNL1       -0.2763
      2 C         141.0300  139.6395  166.6175 C.2     1  UNL1        0.2499
      3 O         139.6063  139.2155  166.4087 O.2     1  UNL1       -0.2699
      4 C         141.4411  140.2746  167.9127 C.ar    1  UNL1        0.0650
      5 C         142.2300  139.4875  168.9168 C.ar    1  UNL1        0.0054
      6 C         142.6411  140.1226  170.2121 C.ar    1  UNL1        0.0011
      7 C         142.2633  141.5448  170.5032 C.ar    1  UNL1        0.0123
      8 C         141.4744  142.3318  169.4991 C.ar    1  UNL1        0.0683
      9 CL        141.0966  143.7540  169.7902 Cl      1  UNL1       -0.0814
     10 C         141.0633  141.6967  168.2039 C.ar    1  UNL1        0.0725
     11 CL        140.2744  142.4838  167.1997 Cl      1  UNL1       -0.0812
     12 C         141.6313  138.7932  164.2358 C.3     1  UNL1        0.0927
     13 C         141.1797  139.5181  163.0027 C.3     1  UNL1        0.0383
     14 C         140.8689  138.4946  161.9510 C.3     1  UNL1        0.0704
     15 N         141.1284  137.1372  162.5342 N.3     1  UNL1       -0.2960
     16 C         141.5996  137.3218  163.9463 C.3     1  UNL1        0.0887
     17 H         141.8456  136.6579  161.9899 H       1  UNL1        0.1233
     18 C         143.4661  139.8523  165.7399 C.3     1  UNL1        0.0936
     19 C         144.9815  139.4584  164.3087 C.3     1  UNL1        0.0017
     20 C         144.1696  140.6605  164.6903 C.3     1  UNL1        0.0183
     21 C         143.3577  141.8627  165.0718 C.3     1  UNL1        0.0017
     22 C         144.8731  141.4688  163.6406 C.3     1  UNL1        0.0017
@<TRIPOS>BOND
     1    19    20    1
     2    20    21    1
     3    20    22    1
     4    20    18    1
     5    18     1    1
     6     1     2   am
     7     2     3    2
     8     2     4    1
     9     4     5   ar
    10     5     6   ar
    11     6     7   ar
    12     7     8   ar
    13     8     9    1
    14     8    10   ar
    15    10    11    1
    16    12     1    1
    17    12    13    1
    18    13    14    1
    19    14    15    1
    20    15    16    1
    21    10     4   ar
    22    16    12    1
    23    15    17    1
@<TRIPOS>MOLECULE
*****
 22 23 0 0 0
SMALL
GASTEIGER

@<TRIPOS>ATOM
      1 N         141.3466  141.1620  166.6797 N.am    1  UNL1       -0.2763
      2 C         140.3643  140.0295  166.6323 C.2     1  UNL1        0.2499
      3 O         139.5017  139.7344  167.8235 O.2     1  UNL1       -0.2699
      4 C         140.2445  139.1919  165.3937 C.ar    1  UNL1        0.0650
      5 C         141.2503  138.1140  165.1170 C.ar    1  UNL1        0.0054
      6 C         141.1305  137.2764  163.8784 C.ar    1  UNL1        0.0011
      7 C         140.0048  137.5168  162.9165 C.ar    1  UNL1        0.0123
      8 C         138.9991  138.5947  163.1932 C.ar    1  UNL1        0.0683
      9 CL        137.8734  138.8351  162.2313 Cl      1  UNL1       -0.0814
     10 C         139.1189  139.4322  164.4318 C.ar    1  UNL1        0.0725
     11 CL        138.1131  140.5102  164.7085 Cl      1  UNL1       -0.0812
     12 C         141.4665  141.9996  167.9183 C.3     1  UNL1        0.0927
     13 C         140.4396  142.9641  168.4332 C.3     1  UNL1        0.0383
     14 C         140.9727  143.5803  169.6926 C.3     1  UNL1        0.0704
     15 N         142.3291  142.9966  169.9561 N.3     1  UNL1       -0.2960
     16 C         142.6342  142.0196  168.8596 C.3     1  UNL1        0.0887
     17 H         142.3308  142.5177  170.8568 H       1  UNL1        0.1233
     18 C         142.2093  141.4570  165.4885 C.3     1  UNL1        0.0936
     19 C         140.8712  142.7857  164.5170 C.3     1  UNL1        0.0017
     20 C         142.3029  142.8572  164.9586 C.3     1  UNL1        0.0183
     21 C         143.7345  142.9286  165.4003 C.3     1  UNL1        0.0017
     22 C         142.3964  144.2573  164.4287 C.3     1  UNL1        0.0017
@<TRIPOS>BOND
     1    19    20    1
     2    20    21    1
     3    20    22    1
     4    20    18    1
     5    18     1    1
     6     1     2   am
     7     2     3    2
     8     2     4    1
     9     4     5   ar
    10     5     6   ar
    11     6     7   ar
    12     7     8   ar
    13     8     9    1
    14     8    10   ar
    15    10    11    1
    16    12     1    1
    17    12    13    1
    18    13    14    1
    19    14    15    1
    20    15    16    1
    21    10     4   ar
    22    16    12    1
    23    15    17    1
@<TRIPOS>MOLECULE
*****
 22 23 0 0 0
SMALL
GASTEIGER

@<TRIPOS>ATOM
      1 N         140.9218  140.7243  166.5876 N.am    1  UNL1       -0.2763
      2 C         139.5264  140.2104  166.3912 C.2     1  UNL1        0.2499
      3 O         138.8316  139.4826  167.5038 O.2     1  UNL1       -0.2699
      4 C         138.8257  140.4241  165.0823 C.ar    1  UNL1        0.0650
      5 C         138.2448  141.7674  164.7531 C.ar    1  UNL1        0.0054
      6 C         137.5441  141.9811  163.4442 C.ar    1  UNL1        0.0011
      7 C         137.4242  140.8516  162.4645 C.ar    1  UNL1        0.0123
      8 C         138.0051  139.5084  162.7937 C.ar    1  UNL1        0.0683
      9 CL        137.8852  138.3788  161.8139 Cl      1  UNL1       -0.0814
     10 C         138.7058  139.2946  164.1026 C.ar    1  UNL1        0.0725
     11 CL        139.2866  137.9514  164.4317 Cl      1  UNL1       -0.0812
     12 C         141.6226  140.5106  167.8965 C.3     1  UNL1        0.0927
     13 C         141.5170  141.3900  169.1071 C.3     1  UNL1        0.0383
     14 C         142.3811  140.8028  170.1835 C.3     1  UNL1        0.0704
     15 N         143.0207  139.5605  169.6381 N.3     1  UNL1       -0.2960
     16 C         142.5519  139.3799  168.2248 C.3     1  UNL1        0.0887
     17 H         142.7459  138.7545  170.1997 H       1  UNL1        0.1233
     18 C         141.6166  141.4520  165.4750 C.3     1  UNL1        0.0936
     19 C         142.4467  139.8035  164.4296 C.3     1  UNL1        0.0017
     20 C         143.0002  141.0458  165.0622 C.3     1  UNL1        0.0183
     21 C         143.5537  142.2882  165.6947 C.3     1  UNL1        0.0017
     22 C         144.3839  140.6396  164.6493 C.3     1  UNL1        0.0017
@<TRIPOS>BOND
     1    19    20    1
     2    20    21    1
     3    20    22    1
     4    20    18    1
     5    18     1    1
     6     1     2   am
     7     2     3    2
     8     2     4    1
     9     4     5   ar
    10     5     6   ar
    11     6     7   ar
    12     7     8   ar
    13     8     9    1
    14     8    10   ar
    15    10    11    1
    16    12     1    1
    17    12    13    1
    18    13    14    1
    19    14    15    1
    20    15    16    1
    21    10     4   ar
    22    16    12    1
    23    15    17    1
@<TRIPOS>MOLECULE
*****
 22 23 0 0 0
SMALL
GASTEIGER

@<TRIPOS>ATOM
      1 N         141.2327  142.1379  163.5472 N.am    1  UNL1       -0.2763
      2 C         141.6168  140.9728  164.4103 C.2     1  UNL1        0.2499
      3 O         142.9589  140.9455  165.0797 O.2     1  UNL1       -0.2699
      4 C         140.6588  139.8349  164.6039 C.ar    1  UNL1        0.0650
      5 C         140.6347  138.6997  163.6237 C.ar    1  UNL1        0.0054
      6 C         139.6768  137.5618  163.8174 C.ar    1  UNL1        0.0011
      7 C         138.7429  137.5591  164.9913 C.ar    1  UNL1        0.0123
      8 C         138.7670  138.6943  165.9714 C.ar    1  UNL1        0.0683
      9 CL        137.8331  138.6916  167.1453 Cl      1  UNL1       -0.0814
     10 C         139.7250  139.8322  165.7778 C.ar    1  UNL1        0.0725
     11 CL        139.7491  140.9674  166.7580 Cl      1  UNL1       -0.0812
     12 C         142.1906  143.2758  163.3536 C.3     1  UNL1        0.0927
     13 C         142.4699  144.3709  164.3399 C.3     1  UNL1        0.0383
     14 C         143.4894  145.2903  163.7355 C.3     1  UNL1        0.0704
     15 N         143.8402  144.7635  162.3756 N.3     1  UNL1       -0.2960
     16 C         143.0376  143.5185  162.1396 C.3     1  UNL1        0.0887
     17 H         144.8360  144.5463  162.3348 H       1  UNL1        0.1233
     18 C         139.8906  142.1652  162.8778 C.3     1  UNL1        0.0936
     19 C         139.3720  143.6104  161.4141 C.3     1  UNL1        0.0017
     20 C         139.0799  143.4273  162.8739 C.3     1  UNL1        0.0183
     21 C         138.7878  143.2441  164.3337 C.3     1  UNL1        0.0017
     22 C         138.2693  144.6893  162.8700 C.3     1  UNL1        0.0017
@<TRIPOS>BOND
     1    19    20    1
     2    20    21    1
     3    20    22    1
     4    20    18    1
     5    18     1    1
     6     1     2   am
     7     2     3    2
     8     2     4    1
     9     4     5   ar
    10     5     6   ar
    11     6     7   ar
    12     7     8   ar
    13     8     9    1
    14     8    10   ar
    15    10    11    1
    16    12     1    1
    17    12    13    1
    18    13    14    1
    19    14    15    1
    20    15    16    1
    21    10     4   ar
    22    16    12    1
    23    15    17    1
@<TRIPOS>MOLECULE
*****
 22 23 0 0 0
SMALL
GASTEIGER

@<TRIPOS>ATOM
      1 N         141.3001  141.3936  166.8381 N.am    1  UNL1       -0.2763
      2 C         142.4972  140.5068  166.6640 C.2     1  UNL1        0.2499
      3 O         142.8959  139.5615  167.7584 O.2     1  UNL1       -0.2699
      4 C         143.2958  140.5652  165.3956 C.ar    1  UNL1        0.0650
      5 C         144.1844  141.7425  165.1223 C.ar    1  UNL1        0.0054
      6 C         144.9829  141.8009  163.8539 C.ar    1  UNL1        0.0011
      7 C         144.8928  140.6821  162.8587 C.ar    1  UNL1        0.0123
      8 C         144.0043  139.5050  163.1320 C.ar    1  UNL1        0.0683
      9 CL        143.9142  138.3863  162.1368 Cl      1  UNL1       -0.0814
     10 C         143.2057  139.4466  164.4004 C.ar    1  UNL1        0.0725
     11 CL        142.3171  138.2693  164.6736 Cl      1  UNL1       -0.0812
     12 C         140.5015  141.3351  168.1066 C.3     1  UNL1        0.0927
     13 C         139.6172  140.2038  168.5404 C.3     1  UNL1        0.0383
     14 C         139.0162  140.5672  169.8658 C.3     1  UNL1        0.0704
     15 N         139.5291  141.9231  170.2512 N.3     1  UNL1       -0.2960
     16 C         140.4471  142.3976  169.1639 C.3     1  UNL1        0.0887
     17 H         140.0388  141.8627  171.1327 H       1  UNL1        0.1233
     18 C         140.9014  142.3389  165.7438 C.3     1  UNL1        0.0936
     19 C         139.3349  143.7665  165.6548 C.3     1  UNL1        0.0017
     20 C         139.4930  142.3374  165.2275 C.3     1  UNL1        0.0183
     21 C         139.6511  140.9083  164.8003 C.3     1  UNL1        0.0017
     22 C         138.0847  142.3359  164.7113 C.3     1  UNL1        0.0017
@<TRIPOS>BOND
     1    19    20    1
     2    20    21    1
     3    20    22    1
     4    20    18    1
     5    18     1    1
     6     1     2   am
     7     2     3    2
     8     2     4    1
     9     4     5   ar
    10     5     6   ar
    11     6     7   ar
    12     7     8   ar
    13     8     9    1
    14     8    10   ar
    15    10    11    1
    16    12     1    1
    17    12    13    1
    18    13    14    1
    19    14    15    1
    20    15    16    1
    21    10     4   ar
    22    16    12    1
    23    15    17    1
