@<TRIPOS>MOLECULE
*****
 38 42 0 0 0
SMALL
GASTEIGER

@<TRIPOS>ATOM
      1 O         137.8501  142.8105  157.8802 O.2     1  UNL1       -0.2733
      2 C         137.2317  141.6105  157.2265 C.2     1  UNL1        0.2426
      3 N         137.2840  140.2750  157.9077 N.am    1  UNL1       -0.3018
      4 H         136.8782  139.4873  157.4787 H       1  UNL1        0.1495
      5 C         137.9546  140.1398  159.2426 C.3     1  UNL1        0.1035
      6 C         137.5792  140.4714  160.6565 C.3     1  UNL1        0.0933
      7 N         138.9029  139.9487  161.1305 N.3     1  UNL1       -0.2711
      8 C         139.2783  139.6172  159.7166 C.3     1  UNL1        0.0933
      9 C         139.5734  139.8136  162.4655 C.3     1  UNL1        0.0576
     10 C         140.4719  140.9048  162.9673 C.3     1  UNL1        0.0163
     11 C         141.1425  140.7697  164.3023 C.3     1  UNL1        0.0058
     12 C         140.9145  139.5433  165.1354 C.3     1  UNL1        0.0240
     13 C         140.0160  138.4521  164.6335 C.3     1  UNL1        0.0058
     14 C         139.3454  138.5873  163.2986 C.3     1  UNL1        0.0163
     15 C         141.5850  139.4081  166.4704 C.2     1  UNL1       -0.0023
     16 C         142.9797  138.9107  166.7102 C.2     1  UNL1        0.0942
     17 N         143.2351  138.9419  168.1880 N.2     1  UNL1       -0.2482
     18 C         141.9984  139.4585  168.8615 C.2     1  UNL1        0.0631
     19 C         141.6692  139.7038  170.3041 C.3     1  UNL1        0.0717
     20 C         140.3201  140.2372  170.6853 C.2     1  UNL1       -0.0198
     21 C         139.3002  140.5254  169.6238 C.2     1  UNL1       -0.0042
     22 C         139.6294  140.2801  168.1811 C.2     1  UNL1        0.0006
     23 C         140.9785  139.7467  167.7999 C.2     1  UNL1        0.0114
     24 C         136.5612  141.7457  155.8916 C.3     1  UNL1        0.1759
     25 N         135.0651  141.8154  155.8074 N.am    1  UNL1       -0.2931
     26 C         134.2489  140.5612  155.9091 C.2     1  UNL1        0.2462
     27 O         134.9287  139.2369  156.0950 O.2     1  UNL1       -0.2701
     28 H         134.6189  142.6845  155.6854 H       1  UNL1        0.1502
     29 C         132.7528  140.6309  155.8249 C.ar    1  UNL1        0.0533
     30 C         132.0968  141.7088  155.0139 C.ar    1  UNL1        0.0045
     31 C         130.6008  141.7785  154.9297 C.ar    1  UNL1        0.0001
     32 C         129.7608  140.7704  155.6564 C.ar    1  UNL1        0.0039
     33 C         130.4169  139.6925  156.4675 C.ar    1  UNL1        0.0716
     34 C         131.9129  139.6227  156.5517 C.ar    1  UNL1        0.0084
     35 C         129.5770  138.6844  157.1943 C.3     1  UNL1        0.4186
     36 F         128.7370  137.6764  157.9211 F       1  UNL1       -0.1659
     37 F         130.2996  137.5745  156.4901 F       1  UNL1       -0.1659
     38 F         128.8543  139.7944  157.8985 F       1  UNL1       -0.1659
@<TRIPOS>BOND
     1     1     2    2
     2     2    24    1
     3    24    25    1
     4    25    26   am
     5    26    27    2
     6    26    29    1
     7    29    30   ar
     8    30    31   ar
     9    31    32   ar
    10    32    33   ar
    11    33    35    1
    12    35    36    1
    13    35    37    1
    14    35    38    1
    15    33    34   ar
    16     2     3   am
    17     3     5    1
    18     5     6    1
    19     6     7    1
    20     7     9    1
    21     9    10    1
    22    10    11    1
    23    11    12    1
    24    12    15    1
    25    15    16    2
    26    16    17    1
    27    17    18    2
    28    18    19    1
    29    19    20    1
    30    20    21    2
    31    21    22    1
    32    22    23    2
    33    12    13    1
    34    13    14    1
    35     7     8    1
    36    34    29   ar
    37     8     5    1
    38    14     9    1
    39    23    15    1
    40    23    18    1
    41    25    28    1
    42     3     4    1
@<TRIPOS>MOLECULE
*****
 38 42 0 0 0
SMALL
GASTEIGER

@<TRIPOS>ATOM
      1 O         137.9631  142.7449  157.7982 O.2     1  UNL1       -0.2733
      2 C         137.2510  141.5664  157.2032 C.2     1  UNL1        0.2426
      3 N         137.2155  140.2608  157.9411 N.am    1  UNL1       -0.3018
      4 H         136.7481  139.4873  157.5507 H       1  UNL1        0.1495
      5 C         137.8921  140.1340  159.2738 C.3     1  UNL1        0.1035
      6 C         137.4243  139.9644  160.6888 C.3     1  UNL1        0.0933
      7 N         138.8488  139.9545  161.1585 N.3     1  UNL1       -0.2711
      8 C         139.3166  140.1240  159.7435 C.3     1  UNL1        0.0933
      9 C         139.5254  139.8276  162.4913 C.3     1  UNL1        0.0576
     10 C         139.8899  141.0583  163.2676 C.3     1  UNL1        0.0163
     11 C         140.5664  140.9314  164.6003 C.3     1  UNL1        0.0058
     12 C         140.8784  139.5738  165.1568 C.3     1  UNL1        0.0240
     13 C         140.5139  138.3432  164.3806 C.3     1  UNL1        0.0058
     14 C         139.8374  138.4701  163.0478 C.3     1  UNL1        0.0163
     15 C         141.5549  139.4469  166.4896 C.2     1  UNL1       -0.0023
     16 C         142.9542  138.9606  166.7254 C.2     1  UNL1        0.0942
     17 N         143.2149  138.9972  168.2021 N.2     1  UNL1       -0.2482
     18 C         141.9768  139.5061  168.8790 C.2     1  UNL1        0.0631
     19 C         141.6512  139.7524  170.3223 C.3     1  UNL1        0.0717
     20 C         140.2995  140.2766  170.7072 C.2     1  UNL1       -0.0198
     21 C         139.2735  140.5545  169.6489 C.2     1  UNL1       -0.0042
     22 C         139.5992  140.3082  168.2055 C.2     1  UNL1        0.0006
     23 C         140.9509  139.7841  167.8206 C.2     1  UNL1        0.0114
     24 C         136.5744  141.6933  155.8706 C.3     1  UNL1        0.1759
     25 N         135.0830  141.8363  155.7972 N.am    1  UNL1       -0.2931
     26 C         134.2067  140.6249  155.9163 C.2     1  UNL1        0.2462
     27 O         134.8216  139.2703  156.1089 O.2     1  UNL1       -0.2701
     28 H         134.6794  142.7253  155.6708 H       1  UNL1        0.1502
     29 C         132.7152  140.7678  155.8429 C.ar    1  UNL1        0.0533
     30 C         131.8328  139.8184  156.5977 C.ar    1  UNL1        0.0045
     31 C         130.3414  139.9613  156.5243 C.ar    1  UNL1        0.0001
     32 C         129.7325  141.0537  155.6961 C.ar    1  UNL1        0.0039
     33 C         130.6150  142.0032  154.9412 C.ar    1  UNL1        0.0716
     34 C         132.1064  141.8603  155.0146 C.ar    1  UNL1        0.0084
     35 C         130.0061  143.0956  154.1130 C.3     1  UNL1        0.4186
     36 F         129.3972  144.1879  153.2849 F       1  UNL1       -0.1659
     37 F         129.6507  143.8451  155.3629 F       1  UNL1       -0.1659
     38 F         130.3615  142.3461  152.8632 F       1  UNL1       -0.1659
@<TRIPOS>BOND
     1     1     2    2
     2     2    24    1
     3    24    25    1
     4    25    26   am
     5    26    27    2
     6    26    29    1
     7    29    30   ar
     8    30    31   ar
     9    31    32   ar
    10    32    33   ar
    11    33    35    1
    12    35    36    1
    13    35    37    1
    14    35    38    1
    15    33    34   ar
    16     2     3   am
    17     3     5    1
    18     5     6    1
    19     6     7    1
    20     7     9    1
    21     9    10    1
    22    10    11    1
    23    11    12    1
    24    12    15    1
    25    15    16    2
    26    16    17    1
    27    17    18    2
    28    18    19    1
    29    19    20    1
    30    20    21    2
    31    21    22    1
    32    22    23    2
    33    12    13    1
    34    13    14    1
    35     7     8    1
    36    34    29   ar
    37     8     5    1
    38    14     9    1
    39    23    15    1
    40    23    18    1
    41    25    28    1
    42     3     4    1
@<TRIPOS>MOLECULE
*****
 38 42 0 0 0
SMALL
GASTEIGER

@<TRIPOS>ATOM
      1 O         142.4566  137.8622  158.7316 O.2     1  UNL1       -0.2733
      2 C         141.2215  138.0237  157.8959 C.2     1  UNL1        0.2426
      3 N         139.9354  138.4575  158.5344 N.am    1  UNL1       -0.3018
      4 H         139.1247  138.5635  157.9859 H       1  UNL1        0.1495
      5 C         139.8844  138.7298  160.0086 C.3     1  UNL1        0.1035
      6 C         139.3106  138.0201  161.1990 C.3     1  UNL1        0.0933
      7 N         139.8123  139.1148  162.0934 N.3     1  UNL1       -0.2711
      8 C         140.3860  139.8245  160.9030 C.3     1  UNL1        0.0933
      9 C         139.7612  139.3869  163.5676 C.3     1  UNL1        0.0576
     10 C         138.5192  139.9615  164.1817 C.3     1  UNL1        0.0163
     11 C         138.4681  140.2337  165.6559 C.3     1  UNL1        0.0058
     12 C         139.6593  139.9313  166.5161 C.3     1  UNL1        0.0240
     13 C         140.9013  139.3567  165.9020 C.3     1  UNL1        0.0058
     14 C         140.9523  139.0845  164.4278 C.3     1  UNL1        0.0163
     15 C         139.6083  140.2035  167.9903 C.2     1  UNL1       -0.0023
     16 C         138.5657  139.7004  168.9442 C.2     1  UNL1        0.0942
     17 N         138.9040  140.2126  170.3129 N.2     1  UNL1       -0.2482
     18 C         140.1556  141.0322  170.2049 C.2     1  UNL1        0.0631
     19 C         140.9552  141.7828  171.2281 C.3     1  UNL1        0.0717
     20 C         142.1901  142.5279  170.8160 C.2     1  UNL1       -0.0198
     21 C         142.6253  142.5223  169.3805 C.2     1  UNL1       -0.0042
     22 C         141.8258  141.7716  168.3573 C.2     1  UNL1        0.0006
     23 C         140.5909  141.0265  168.7694 C.2     1  UNL1        0.0114
     24 C         141.2726  137.7514  156.4218 C.3     1  UNL1        0.1759
     25 N         141.4028  136.3426  155.9233 N.am    1  UNL1       -0.2931
     26 C         142.7612  135.7298  155.7530 C.2     1  UNL1        0.2462
     27 O         143.9896  136.5257  156.0811 O.2     1  UNL1       -0.2701
     28 H         140.5966  135.8201  155.7080 H       1  UNL1        0.1502
     29 C         142.8913  134.3210  155.2546 C.ar    1  UNL1        0.0533
     30 C         142.3856  133.9586  153.8897 C.ar    1  UNL1        0.0045
     31 C         142.5157  132.5499  153.3912 C.ar    1  UNL1        0.0001
     32 C         143.1516  131.5035  154.2576 C.ar    1  UNL1        0.0039
     33 C         143.6574  131.8658  155.6225 C.ar    1  UNL1        0.0716
     34 C         143.5273  133.2746  156.1210 C.ar    1  UNL1        0.0084
     35 C         144.2933  130.8194  156.4889 C.3     1  UNL1        0.4186
     36 F         144.9292  129.7730  157.3552 F       1  UNL1       -0.1659
     37 F         143.2647  131.0734  157.5507 F       1  UNL1       -0.1659
     38 F         145.3220  130.5655  155.4271 F       1  UNL1       -0.1659
@<TRIPOS>BOND
     1     1     2    2
     2     2    24    1
     3    24    25    1
     4    25    26   am
     5    26    27    2
     6    26    29    1
     7    29    30   ar
     8    30    31   ar
     9    31    32   ar
    10    32    33   ar
    11    33    35    1
    12    35    36    1
    13    35    37    1
    14    35    38    1
    15    33    34   ar
    16     2     3   am
    17     3     5    1
    18     5     6    1
    19     6     7    1
    20     7     9    1
    21     9    10    1
    22    10    11    1
    23    11    12    1
    24    12    15    1
    25    15    16    2
    26    16    17    1
    27    17    18    2
    28    18    19    1
    29    19    20    1
    30    20    21    2
    31    21    22    1
    32    22    23    2
    33    12    13    1
    34    13    14    1
    35     7     8    1
    36    34    29   ar
    37     8     5    1
    38    14     9    1
    39    23    15    1
    40    23    18    1
    41    25    28    1
    42     3     4    1
@<TRIPOS>MOLECULE
*****
 38 42 0 0 0
SMALL
GASTEIGER

@<TRIPOS>ATOM
      1 O         140.3393  138.2454  157.8792 O.2     1  UNL1       -0.2733
      2 C         141.5945  137.5721  157.4091 C.2     1  UNL1        0.2426
      3 N         142.7937  137.5093  158.3082 N.am    1  UNL1       -0.3018
      4 H         143.6176  137.0675  157.9997 H       1  UNL1        0.1495
      5 C         142.7374  138.1198  159.6771 C.3     1  UNL1        0.1035
      6 C         141.8916  137.9099  160.8980 C.3     1  UNL1        0.0933
      7 N         142.6577  138.9830  161.6132 N.3     1  UNL1       -0.2711
      8 C         143.5035  139.1929  160.3924 C.3     1  UNL1        0.0933
      9 C         142.6013  139.5934  162.9823 C.3     1  UNL1        0.0576
     10 C         143.3912  138.9900  164.1056 C.3     1  UNL1        0.0163
     11 C         143.3348  139.6004  165.4746 C.3     1  UNL1        0.0058
     12 C         142.4884  140.8143  165.7203 C.3     1  UNL1        0.0240
     13 C         141.6985  141.4176  164.5970 C.3     1  UNL1        0.0058
     14 C         141.7549  140.8072  163.2280 C.3     1  UNL1        0.0163
     15 C         142.4320  141.4247  167.0894 C.2     1  UNL1       -0.0023
     16 C         143.4368  142.3726  167.6742 C.2     1  UNL1        0.0942
     17 N         142.9866  142.7280  169.0602 N.2     1  UNL1       -0.2482
     18 C         141.7038  141.9998  169.3320 C.2     1  UNL1        0.0631
     19 C         140.8035  141.9661  170.5313 C.3     1  UNL1        0.0717
     20 C         139.5604  141.1269  170.5125 C.2     1  UNL1       -0.0198
     21 C         139.2176  140.3214  169.2944 C.2     1  UNL1       -0.0042
     22 C         140.1179  140.3550  168.0952 C.2     1  UNL1        0.0006
     23 C         141.3610  141.1942  168.1140 C.2     1  UNL1        0.0114
     24 C         141.6507  136.9617  156.0402 C.3     1  UNL1        0.1759
     25 N         141.4426  135.4862  155.8677 N.am    1  UNL1       -0.2931
     26 C         142.5483  134.5289  156.2003 C.2     1  UNL1        0.2462
     27 O         143.8624  135.0469  156.7055 O.2     1  UNL1       -0.2701
     28 H         140.5802  135.1462  155.5362 H       1  UNL1        0.1502
     29 C         142.3402  133.0534  156.0279 C.ar    1  UNL1        0.0533
     30 C         141.3038  132.5494  155.0678 C.ar    1  UNL1        0.0045
     31 C         141.0956  131.0740  154.8953 C.ar    1  UNL1        0.0001
     32 C         141.9238  130.1025  155.6829 C.ar    1  UNL1        0.0039
     33 C         142.9603  130.6065  156.6430 C.ar    1  UNL1        0.0716
     34 C         143.1685  132.0820  156.8155 C.ar    1  UNL1        0.0084
     35 C         143.7886  129.6351  157.4306 C.3     1  UNL1        0.4186
     36 F         144.6167  128.6637  158.2182 F       1  UNL1       -0.1659
     37 F         144.7195  130.7448  157.8203 F       1  UNL1       -0.1659
     38 F         142.8575  128.5254  157.0409 F       1  UNL1       -0.1659
@<TRIPOS>BOND
     1     1     2    2
     2     2    24    1
     3    24    25    1
     4    25    26   am
     5    26    27    2
     6    26    29    1
     7    29    30   ar
     8    30    31   ar
     9    31    32   ar
    10    32    33   ar
    11    33    35    1
    12    35    36    1
    13    35    37    1
    14    35    38    1
    15    33    34   ar
    16     2     3   am
    17     3     5    1
    18     5     6    1
    19     6     7    1
    20     7     9    1
    21     9    10    1
    22    10    11    1
    23    11    12    1
    24    12    15    1
    25    15    16    2
    26    16    17    1
    27    17    18    2
    28    18    19    1
    29    19    20    1
    30    20    21    2
    31    21    22    1
    32    22    23    2
    33    12    13    1
    34    13    14    1
    35     7     8    1
    36    34    29   ar
    37     8     5    1
    38    14     9    1
    39    23    15    1
    40    23    18    1
    41    25    28    1
    42     3     4    1
@<TRIPOS>MOLECULE
*****
 38 42 0 0 0
SMALL
GASTEIGER

@<TRIPOS>ATOM
      1 O         140.2946  138.0324  157.8859 O.2     1  UNL1       -0.2733
      2 C         141.5924  137.4928  157.3620 C.2     1  UNL1        0.2426
      3 N         142.8279  137.5560  158.2103 N.am    1  UNL1       -0.3018
      4 H         143.6797  137.2019  157.8665 H       1  UNL1        0.1495
      5 C         142.7655  138.1587  159.5824 C.3     1  UNL1        0.1035
      6 C         142.2426  137.7105  160.9149 C.3     1  UNL1        0.0933
      7 N         142.6772  139.0110  161.5229 N.3     1  UNL1       -0.2711
      8 C         143.2000  139.4593  160.1904 C.3     1  UNL1        0.0933
      9 C         142.6147  139.6137  162.8951 C.3     1  UNL1        0.0576
     10 C         143.6659  139.2769  163.9108 C.3     1  UNL1        0.0163
     11 C         143.6034  139.8795  165.2830 C.3     1  UNL1        0.0058
     12 C         142.4897  140.8190  165.6395 C.3     1  UNL1        0.0240
     13 C         141.4385  141.1558  164.6239 C.3     1  UNL1        0.0058
     14 C         141.5010  140.5531  163.2517 C.3     1  UNL1        0.0163
     15 C         142.4272  141.4217  167.0117 C.2     1  UNL1       -0.0023
     16 C         143.4243  142.3737  167.6028 C.2     1  UNL1        0.0942
     17 N         142.9700  142.7185  168.9901 N.2     1  UNL1       -0.2482
     18 C         141.6920  141.9796  169.2565 C.2     1  UNL1        0.0631
     19 C         140.7905  141.9330  170.4544 C.3     1  UNL1        0.0717
     20 C         139.5535  141.0850  170.4295 C.2     1  UNL1       -0.0198
     21 C         139.2181  140.2835  169.2068 C.2     1  UNL1       -0.0042
     22 C         140.1196  140.3301  168.0089 C.2     1  UNL1        0.0006
     23 C         141.3566  141.1781  168.0337 C.2     1  UNL1        0.0114
     24 C         141.6547  136.8901  155.9899 C.3     1  UNL1        0.1759
     25 N         141.4790  135.4111  155.8116 N.am    1  UNL1       -0.2931
     26 C         142.5671  134.4700  156.2363 C.2     1  UNL1        0.2462
     27 O         143.8310  135.0079  156.8392 O.2     1  UNL1       -0.2701
     28 H         140.6496  135.0580  155.4159 H       1  UNL1        0.1502
     29 C         142.3914  132.9910  156.0580 C.ar    1  UNL1        0.0533
     30 C         143.2211  132.0349  156.8627 C.ar    1  UNL1        0.0045
     31 C         143.0455  130.5559  156.6845 C.ar    1  UNL1        0.0001
     32 C         142.0402  130.0330  155.7016 C.ar    1  UNL1        0.0039
     33 C         141.2105  130.9892  154.8969 C.ar    1  UNL1        0.0716
     34 C         141.3861  132.4681  155.0751 C.ar    1  UNL1        0.0084
     35 C         140.2053  130.4663  153.9140 C.3     1  UNL1        0.4186
     36 F         139.2001  129.9434  152.9312 F       1  UNL1       -0.1659
     37 F         139.2747  130.1340  155.0425 F       1  UNL1       -0.1659
     38 F         141.1359  130.7986  152.7855 F       1  UNL1       -0.1659
@<TRIPOS>BOND
     1     1     2    2
     2     2    24    1
     3    24    25    1
     4    25    26   am
     5    26    27    2
     6    26    29    1
     7    29    30   ar
     8    30    31   ar
     9    31    32   ar
    10    32    33   ar
    11    33    35    1
    12    35    36    1
    13    35    37    1
    14    35    38    1
    15    33    34   ar
    16     2     3   am
    17     3     5    1
    18     5     6    1
    19     6     7    1
    20     7     9    1
    21     9    10    1
    22    10    11    1
    23    11    12    1
    24    12    15    1
    25    15    16    2
    26    16    17    1
    27    17    18    2
    28    18    19    1
    29    19    20    1
    30    20    21    2
    31    21    22    1
    32    22    23    2
    33    12    13    1
    34    13    14    1
    35     7     8    1
    36    34    29   ar
    37     8     5    1
    38    14     9    1
    39    23    15    1
    40    23    18    1
    41    25    28    1
    42     3     4    1
@<TRIPOS>MOLECULE
*****
 38 42 0 0 0
SMALL
GASTEIGER

@<TRIPOS>ATOM
      1 O         137.9762  139.9526  157.6219 O.2     1  UNL1       -0.2733
      2 C         138.9527  141.0911  157.6301 C.2     1  UNL1        0.2426
      3 N         140.3893  140.8496  157.2722 N.am    1  UNL1       -0.3018
      4 H         141.0302  141.5969  157.2776 H       1  UNL1        0.1495
      5 C         140.8491  139.4697  156.9060 C.3     1  UNL1        0.1035
      6 C         141.0949  138.1980  157.6626 C.3     1  UNL1        0.0933
      7 N         141.4995  137.5180  156.3883 N.3     1  UNL1       -0.2711
      8 C         141.2538  138.7897  155.6317 C.3     1  UNL1        0.0933
      9 C         141.9594  136.1380  156.0222 C.3     1  UNL1        0.0576
     10 C         141.0703  135.2412  155.2128 C.3     1  UNL1        0.0163
     11 C         141.5301  133.8612  154.8467 C.3     1  UNL1        0.0058
     12 C         142.8793  133.3779  155.2901 C.3     1  UNL1        0.0240
     13 C         143.7683  134.2747  156.0995 C.3     1  UNL1        0.0058
     14 C         143.3084  135.6547  156.4656 C.3     1  UNL1        0.0163
     15 C         143.3391  131.9979  154.9240 C.2     1  UNL1       -0.0023
     16 C         143.4021  131.4282  153.5378 C.2     1  UNL1        0.0942
     17 N         143.9187  130.0235  153.6370 N.2     1  UNL1       -0.2482
     18 C         144.1750  129.7249  155.0845 C.2     1  UNL1        0.0631
     19 C         144.6882  128.4996  155.7810 C.3     1  UNL1        0.0717
     20 C         144.8433  128.4946  157.2729 C.2     1  UNL1       -0.0198
     21 C         144.4851  129.7148  158.0684 C.2     1  UNL1       -0.0042
     22 C         143.9718  130.9401  157.3719 C.2     1  UNL1        0.0006
     23 C         143.8168  130.9452  155.8799 C.2     1  UNL1        0.0114
     24 C         138.4927  142.4710  157.9963 C.3     1  UNL1        0.1759
     25 N         138.7143  142.9915  159.3856 N.am    1  UNL1       -0.2931
     26 C         140.0735  143.4730  159.7983 C.2     1  UNL1        0.2462
     27 O         141.2114  143.4342  158.8216 O.2     1  UNL1       -0.2701
     28 H         137.9674  143.0170  160.0266 H       1  UNL1        0.1502
     29 C         140.2950  143.9935  161.1876 C.ar    1  UNL1        0.0533
     30 C         141.6502  144.4912  161.5948 C.ar    1  UNL1        0.0045
     31 C         141.8718  145.0117  162.9840 C.ar    1  UNL1        0.0001
     32 C         140.7382  145.0344  163.9661 C.ar    1  UNL1        0.0039
     33 C         139.3829  144.5367  163.5589 C.ar    1  UNL1        0.0716
     34 C         139.1614  144.0162  162.1696 C.ar    1  UNL1        0.0084
     35 C         138.2493  144.5595  164.5410 C.3     1  UNL1        0.4186
     36 F         137.1158  144.5822  165.5230 F       1  UNL1       -0.1659
     37 F         139.2254  144.7554  165.6630 F       1  UNL1       -0.1659
     38 F         137.2734  144.3635  163.4188 F       1  UNL1       -0.1659
@<TRIPOS>BOND
     1     1     2    2
     2     2    24    1
     3    24    25    1
     4    25    26   am
     5    26    27    2
     6    26    29    1
     7    29    30   ar
     8    30    31   ar
     9    31    32   ar
    10    32    33   ar
    11    33    35    1
    12    35    36    1
    13    35    37    1
    14    35    38    1
    15    33    34   ar
    16     2     3   am
    17     3     5    1
    18     5     6    1
    19     6     7    1
    20     7     9    1
    21     9    10    1
    22    10    11    1
    23    11    12    1
    24    12    15    1
    25    15    16    2
    26    16    17    1
    27    17    18    2
    28    18    19    1
    29    19    20    1
    30    20    21    2
    31    21    22    1
    32    22    23    2
    33    12    13    1
    34    13    14    1
    35     7     8    1
    36    34    29   ar
    37     8     5    1
    38    14     9    1
    39    23    15    1
    40    23    18    1
    41    25    28    1
    42     3     4    1
@<TRIPOS>MOLECULE
*****
 38 42 0 0 0
SMALL
GASTEIGER

@<TRIPOS>ATOM
      1 O         137.9534  139.8922  158.3904 O.2     1  UNL1       -0.2733
      2 C         138.8282  141.0900  158.1671 C.2     1  UNL1        0.2426
      3 N         140.1883  140.9222  157.5571 N.am    1  UNL1       -0.3018
      4 H         140.7625  141.7083  157.4106 H       1  UNL1        0.1495
      5 C         140.6734  139.5565  157.1704 C.3     1  UNL1        0.1035
      6 C         141.1930  138.3645  157.9181 C.3     1  UNL1        0.0933
      7 N         141.3596  137.6252  156.6236 N.3     1  UNL1       -0.2711
      8 C         140.8400  138.8172  155.8759 C.3     1  UNL1        0.0933
      9 C         141.8447  136.2594  156.2370 C.3     1  UNL1        0.0576
     10 C         141.0195  135.4006  155.3253 C.3     1  UNL1        0.0163
     11 C         141.5046  134.0349  154.9387 C.3     1  UNL1        0.0058
     12 C         142.8152  133.5280  155.4638 C.3     1  UNL1        0.0240
     13 C         143.6404  134.3869  156.3755 C.3     1  UNL1        0.0058
     14 C         143.1552  135.7526  156.7621 C.3     1  UNL1        0.0163
     15 C         143.3003  132.1623  155.0772 C.2     1  UNL1       -0.0023
     16 C         143.3636  131.6109  153.6837 C.2     1  UNL1        0.0942
     17 N         143.9098  130.2160  153.7616 N.2     1  UNL1       -0.2482
     18 C         144.1841  129.9054  155.2032 C.2     1  UNL1        0.0631
     19 C         144.7282  128.6827  155.8805 C.3     1  UNL1        0.0717
     20 C         144.8957  128.6628  157.3710 C.2     1  UNL1       -0.0198
     21 C         144.5190  129.8657  158.1841 C.2     1  UNL1       -0.0042
     22 C         143.9749  131.0884  157.5068 C.2     1  UNL1        0.0006
     23 C         143.8075  131.1083  156.0163 C.2     1  UNL1        0.0114
     24 C         138.3430  142.4556  158.5539 C.3     1  UNL1        0.1759
     25 N         138.7967  143.0758  159.8421 N.am    1  UNL1       -0.2931
     26 C         138.2869  142.5467  161.1497 C.2     1  UNL1        0.2462
     27 O         137.3233  141.3972  161.1693 O.2     1  UNL1       -0.2701
     28 H         139.4291  143.8302  159.8293 H       1  UNL1        0.1502
     29 C         138.7407  143.1669  162.4380 C.ar    1  UNL1        0.0533
     30 C         137.7913  143.2732  163.5944 C.ar    1  UNL1        0.0045
     31 C         138.2449  143.8934  164.8826 C.ar    1  UNL1        0.0001
     32 C         139.6479  144.4073  165.0145 C.ar    1  UNL1        0.0039
     33 C         140.5974  144.3010  163.8580 C.ar    1  UNL1        0.0716
     34 C         140.1438  143.6808  162.5697 C.ar    1  UNL1        0.0084
     35 C         142.0004  144.8149  163.9898 C.3     1  UNL1        0.4186
     36 F         143.4034  145.3288  164.1216 F       1  UNL1       -0.1659
     37 F         142.3584  143.6230  164.8271 F       1  UNL1       -0.1659
     38 F         141.6424  146.0069  163.1524 F       1  UNL1       -0.1659
@<TRIPOS>BOND
     1     1     2    2
     2     2    24    1
     3    24    25    1
     4    25    26   am
     5    26    27    2
     6    26    29    1
     7    29    30   ar
     8    30    31   ar
     9    31    32   ar
    10    32    33   ar
    11    33    35    1
    12    35    36    1
    13    35    37    1
    14    35    38    1
    15    33    34   ar
    16     2     3   am
    17     3     5    1
    18     5     6    1
    19     6     7    1
    20     7     9    1
    21     9    10    1
    22    10    11    1
    23    11    12    1
    24    12    15    1
    25    15    16    2
    26    16    17    1
    27    17    18    2
    28    18    19    1
    29    19    20    1
    30    20    21    2
    31    21    22    1
    32    22    23    2
    33    12    13    1
    34    13    14    1
    35     7     8    1
    36    34    29   ar
    37     8     5    1
    38    14     9    1
    39    23    15    1
    40    23    18    1
    41    25    28    1
    42     3     4    1
@<TRIPOS>MOLECULE
*****
 38 42 0 0 0
SMALL
GASTEIGER

@<TRIPOS>ATOM
      1 O         140.1421  145.7814  158.6959 O.2     1  UNL1       -0.2733
      2 C         140.5144  144.6987  157.7268 C.2     1  UNL1        0.2426
      3 N         141.0777  143.4028  158.2303 N.am    1  UNL1       -0.3018
      4 H         141.3221  142.6921  157.5943 H       1  UNL1        0.1495
      5 C         141.2685  143.1897  159.7027 C.3     1  UNL1        0.1035
      6 C         142.1109  143.8291  160.7664 C.3     1  UNL1        0.0933
      7 N         141.5385  142.8885  161.7851 N.3     1  UNL1       -0.2711
      8 C         140.6962  142.2491  160.7213 C.3     1  UNL1        0.0933
      9 C         141.7295  142.6755  163.2576 C.3     1  UNL1        0.0576
     10 C         142.9311  141.9301  163.7580 C.3     1  UNL1        0.0163
     11 C         143.1221  141.7171  165.2304 C.3     1  UNL1        0.0058
     12 C         142.1113  142.2496  166.2026 C.3     1  UNL1        0.0240
     13 C         140.9097  142.9950  165.7021 C.3     1  UNL1        0.0058
     14 C         140.7188  143.2080  164.2297 C.3     1  UNL1        0.0163
     15 C         142.3022  142.0366  167.6751 C.2     1  UNL1       -0.0023
     16 C         143.5057  142.4384  168.4753 C.2     1  UNL1        0.0942
     17 N         143.2704  142.0345  169.9006 N.2     1  UNL1       -0.2482
     18 C         141.9216  141.3832  169.9813 C.2     1  UNL1        0.0631
     19 C         141.1610  140.7892  171.1295 C.3     1  UNL1        0.0717
     20 C         139.8020  140.1964  170.9023 C.2     1  UNL1       -0.0198
     21 C         139.2036  140.1977  169.5268 C.2     1  UNL1       -0.0042
     22 C         139.9642  140.7918  168.3786 C.2     1  UNL1        0.0006
     23 C         141.3232  141.3845  168.6058 C.2     1  UNL1        0.0114
     24 C         140.3236  144.9119  156.2544 C.3     1  UNL1        0.1759
     25 N         140.5097  146.2782  155.6640 N.am    1  UNL1       -0.2931
     26 C         139.3479  146.9879  155.0345 C.2     1  UNL1        0.2462
     27 O         137.9997  146.3313  154.9955 O.2     1  UNL1       -0.2701
     28 H         141.3945  146.7092  155.6896 H       1  UNL1        0.1502
     29 C         139.5340  148.3542  154.4441 C.ar    1  UNL1        0.0533
     30 C         140.2204  148.5117  153.1197 C.ar    1  UNL1        0.0045
     31 C         140.4065  149.8780  152.5292 C.ar    1  UNL1        0.0001
     32 C         139.9064  151.0868  153.2632 C.ar    1  UNL1        0.0039
     33 C         139.2200  150.9293  154.5877 C.ar    1  UNL1        0.0716
     34 C         139.0338  149.5630  155.1781 C.ar    1  UNL1        0.0084
     35 C         138.7199  152.1381  155.3216 C.3     1  UNL1        0.4186
     36 F         138.2198  153.3468  156.0556 F       1  UNL1       -0.1659
     37 F         138.1808  152.6948  154.0373 F       1  UNL1       -0.1659
     38 F         139.2590  151.5812  156.6059 F       1  UNL1       -0.1659
@<TRIPOS>BOND
     1     1     2    2
     2     2    24    1
     3    24    25    1
     4    25    26   am
     5    26    27    2
     6    26    29    1
     7    29    30   ar
     8    30    31   ar
     9    31    32   ar
    10    32    33   ar
    11    33    35    1
    12    35    36    1
    13    35    37    1
    14    35    38    1
    15    33    34   ar
    16     2     3   am
    17     3     5    1
    18     5     6    1
    19     6     7    1
    20     7     9    1
    21     9    10    1
    22    10    11    1
    23    11    12    1
    24    12    15    1
    25    15    16    2
    26    16    17    1
    27    17    18    2
    28    18    19    1
    29    19    20    1
    30    20    21    2
    31    21    22    1
    32    22    23    2
    33    12    13    1
    34    13    14    1
    35     7     8    1
    36    34    29   ar
    37     8     5    1
    38    14     9    1
    39    23    15    1
    40    23    18    1
    41    25    28    1
    42     3     4    1
@<TRIPOS>MOLECULE
*****
 38 42 0 0 0
SMALL
GASTEIGER

@<TRIPOS>ATOM
      1 O         144.0497  139.7669  159.1860 O.2     1  UNL1       -0.2733
      2 C         143.6031  140.5878  158.0127 C.2     1  UNL1        0.2426
      3 N         143.1031  139.9112  156.7708 N.am    1  UNL1       -0.3018
      4 H         142.8099  140.4499  156.0007 H       1  UNL1        0.1495
      5 C         143.0497  138.4137  156.7024 C.3     1  UNL1        0.1035
      6 C         143.6512  137.3708  155.8076 C.3     1  UNL1        0.0933
      7 N         142.9744  136.2960  156.6054 N.3     1  UNL1       -0.2711
      8 C         142.3729  137.3388  157.5002 C.3     1  UNL1        0.0933
      9 C         142.9211  134.7985  156.5368 C.3     1  UNL1        0.0576
     10 C         141.8784  134.1228  155.6965 C.3     1  UNL1        0.0163
     11 C         141.8251  132.6253  155.6279 C.3     1  UNL1        0.0058
     12 C         142.8146  131.8035  156.3998 C.3     1  UNL1        0.0240
     13 C         143.8572  132.4792  157.2401 C.3     1  UNL1        0.0058
     14 C         143.9105  133.9767  157.3086 C.3     1  UNL1        0.0163
     15 C         142.7613  130.3060  156.3312 C.2     1  UNL1       -0.0023
     16 C         141.9265  129.4959  155.3842 C.2     1  UNL1        0.0942
     17 N         142.1828  128.0449  155.6654 N.2     1  UNL1       -0.2482
     18 C         143.1760  127.9583  156.7861 C.2     1  UNL1        0.0631
     19 C         143.8010  126.7875  157.4850 C.3     1  UNL1        0.0717
     20 C         144.7836  127.0141  158.5955 C.2     1  UNL1       -0.0198
     21 C         145.1412  128.4115  159.0070 C.2     1  UNL1       -0.0042
     22 C         144.5162  129.5823  158.3080 C.2     1  UNL1        0.0006
     23 C         143.5336  129.3557  157.1976 C.2     1  UNL1        0.0114
     24 C         143.6565  142.0852  158.0813 C.3     1  UNL1        0.1759
     25 N         142.9751  142.8094  159.2044 N.am    1  UNL1       -0.2931
     26 C         143.6953  143.0285  160.5018 C.2     1  UNL1        0.2462
     27 O         145.0969  142.5233  160.6762 O.2     1  UNL1       -0.2701
     28 H         142.0552  143.1410  159.0900 H       1  UNL1        0.1502
     29 C         143.0139  143.7527  161.6249 C.ar    1  UNL1        0.0533
     30 C         143.8279  144.3595  162.7290 C.ar    1  UNL1        0.0045
     31 C         143.1466  145.0837  163.8522 C.ar    1  UNL1        0.0001
     32 C         141.6513  145.2010  163.8711 C.ar    1  UNL1        0.0039
     33 C         140.8373  144.5942  162.7669 C.ar    1  UNL1        0.0716
     34 C         141.5186  143.8700  161.6438 C.ar    1  UNL1        0.0084
     35 C         139.3420  144.7116  162.7858 C.3     1  UNL1        0.4186
     36 F         137.8468  144.8289  162.8048 F       1  UNL1       -0.1659
     37 F         139.4414  146.0767  162.1722 F       1  UNL1       -0.1659
     38 F         139.2427  143.3464  163.3994 F       1  UNL1       -0.1659
@<TRIPOS>BOND
     1     1     2    2
     2     2    24    1
     3    24    25    1
     4    25    26   am
     5    26    27    2
     6    26    29    1
     7    29    30   ar
     8    30    31   ar
     9    31    32   ar
    10    32    33   ar
    11    33    35    1
    12    35    36    1
    13    35    37    1
    14    35    38    1
    15    33    34   ar
    16     2     3   am
    17     3     5    1
    18     5     6    1
    19     6     7    1
    20     7     9    1
    21     9    10    1
    22    10    11    1
    23    11    12    1
    24    12    15    1
    25    15    16    2
    26    16    17    1
    27    17    18    2
    28    18    19    1
    29    19    20    1
    30    20    21    2
    31    21    22    1
    32    22    23    2
    33    12    13    1
    34    13    14    1
    35     7     8    1
    36    34    29   ar
    37     8     5    1
    38    14     9    1
    39    23    15    1
    40    23    18    1
    41    25    28    1
    42     3     4    1
