@<TRIPOS>MOLECULE
*****
 29 33 0 0 0
SMALL
GASTEIGER

@<TRIPOS>ATOM
      1 C         141.4182  141.5175  164.4361 C.3     1  UNL1        0.0339
      2 C         140.6893  140.9474  165.6167 C.ar    1  UNL1        0.0095
      3 C         139.4154  140.1820  165.4135 C.ar    1  UNL1        0.0730
      4 C         138.6865  139.6120  166.5941 C.ar    1  UNL1        0.1531
      5 F         137.4125  138.8465  166.3908 F       1  UNL1       -0.2029
      6 C         139.2315  139.8073  167.9778 C.ar    1  UNL1        0.0321
      7 C         140.5054  140.5726  168.1810 C.ar    1  UNL1        0.0154
      8 C         141.0505  140.7680  169.5648 C.ar    1  UNL1       -0.0004
      9 C         142.3244  141.5334  169.7679 C.ar    1  UNL1        0.0579
     10 C         143.0533  142.1034  168.5874 C.ar    1  UNL1        0.2606
     11 O         144.3273  142.8688  168.7906 O.2     1  UNL1       -0.2670
     12 N         142.5083  141.9081  167.2036 N.ar    1  UNL1       -0.2977
     13 C         141.2343  141.1427  167.0004 C.ar    1  UNL1        0.0594
     14 N         138.8703  139.9867  164.0297 N.pl3   1  UNL1       -0.3046
     15 C         137.9514  140.9240  163.3036 C.3     1  UNL1        0.0922
     16 C         137.6616  140.3364  161.9543 C.3     1  UNL1        0.0357
     17 C         137.5594  139.5170  160.7020 C.3     1  UNL1        0.0190
     18 C         138.4014  139.0359  161.8464 C.3     1  UNL1        0.0590
     19 N         138.8555  137.7684  161.1851 N.3     1  UNL1       -0.3218
     20 C         139.1484  138.8198  163.1291 C.3     1  UNL1        0.1049
     21 H         139.4705  137.2565  161.8176 H       1  UNL1        0.1188
     22 H         139.3606  137.9941  160.3282 H       1  UNL1        0.1188
     23 C         140.3216  140.1979  170.7453 C.3     1  UNL1        0.0924
     24 N         140.7699  140.5332  172.1369 N.3     1  UNL1       -0.3175
     25 H         141.6956  140.1374  172.3005 H       1  UNL1        0.1192
     26 H         140.1098  140.1436  172.8099 H       1  UNL1        0.1192
     27 C         143.2372  142.4782  166.0231 C.3     1  UNL1        0.0885
     28 C         144.2473  142.3291  164.9243 C.3     1  UNL1        0.0246
     29 C         143.4895  143.6146  165.0771 C.3     1  UNL1        0.0246
@<TRIPOS>BOND
     1     1     2    1
     2     2     3   ar
     3     3    14    1
     4    14    15    1
     5    15    16    1
     6    16    17    1
     7    17    18    1
     8    18    19    1
     9    18    20    1
    10     3     4   ar
    11     4     5    1
    12     4     6   ar
    13     6     7   ar
    14     7     8   ar
    15     8    23    1
    16    23    24    1
    17     8     9   ar
    18     9    10   ar
    19    10    11    2
    20    10    12   ar
    21    12    27    1
    22    27    28    1
    23    28    29    1
    24    12    13   ar
    25    13     2   ar
    26    20    14    1
    27    13     7   ar
    28    18    16    1
    29    29    27    1
    30    19    21    1
    31    19    22    1
    32    24    25    1
    33    24    26    1
@<TRIPOS>MOLECULE
*****
 29 33 0 0 0
SMALL
GASTEIGER

@<TRIPOS>ATOM
      1 C         140.7911  140.5646  164.3463 C.3     1  UNL1        0.0339
      2 C         141.6152  141.2259  165.4110 C.ar    1  UNL1        0.0095
      3 C         142.8433  142.0011  165.0356 C.ar    1  UNL1        0.0730
      4 C         143.6674  142.6623  166.1003 C.ar    1  UNL1        0.1531
      5 F         144.8955  143.4375  165.7248 F       1  UNL1       -0.2029
      6 C         143.2635  142.5485  167.5403 C.ar    1  UNL1        0.0321
      7 C         142.0355  141.7733  167.9157 C.ar    1  UNL1        0.0154
      8 C         141.6315  141.6594  169.3559 C.ar    1  UNL1       -0.0004
      9 C         140.4034  140.8842  169.7313 C.ar    1  UNL1        0.0579
     10 C         139.5793  140.2230  168.6666 C.ar    1  UNL1        0.2606
     11 O         138.3512  139.4478  169.0421 O.2     1  UNL1       -0.2670
     12 N         139.9832  140.3368  167.2265 N.ar    1  UNL1       -0.2977
     13 C         141.2113  141.1120  166.8511 C.ar    1  UNL1        0.0594
     14 N         143.2473  142.1150  163.5955 N.pl3   1  UNL1       -0.3046
     15 C         144.1871  141.1995  162.8684 C.3     1  UNL1        0.0922
     16 C         144.3031  141.6831  161.4532 C.3     1  UNL1        0.0357
     17 C         144.2188  142.3888  160.1323 C.3     1  UNL1        0.0190
     18 C         143.4348  142.8974  161.3057 C.3     1  UNL1        0.0590
     19 N         142.8060  144.0530  160.5852 N.3     1  UNL1       -0.3218
     20 C         142.7823  143.1643  162.6297 C.3     1  UNL1        0.1049
     21 H         142.2004  144.5648  161.2269 H       1  UNL1        0.1188
     22 H         142.2539  143.7051  159.8012 H       1  UNL1        0.1188
     23 C         142.4556  142.3207  170.4205 C.3     1  UNL1        0.0924
     24 N         142.0750  142.1725  171.8638 N.3     1  UNL1       -0.3175
     25 H         141.1807  142.6345  172.0287 H       1  UNL1        0.1192
     26 H         142.7918  142.6002  172.4501 H       1  UNL1        0.1192
     27 C         139.1591  139.6756  166.1619 C.3     1  UNL1        0.0885
     28 C         138.7643  138.4438  165.4024 C.3     1  UNL1        0.0246
     29 C         138.1265  139.7620  165.0774 C.3     1  UNL1        0.0246
@<TRIPOS>BOND
     1     1     2    1
     2     2     3   ar
     3     3    14    1
     4    14    15    1
     5    15    16    1
     6    16    17    1
     7    17    18    1
     8    18    19    1
     9    18    20    1
    10     3     4   ar
    11     4     5    1
    12     4     6   ar
    13     6     7   ar
    14     7     8   ar
    15     8    23    1
    16    23    24    1
    17     8     9   ar
    18     9    10   ar
    19    10    11    2
    20    10    12   ar
    21    12    27    1
    22    27    28    1
    23    28    29    1
    24    12    13   ar
    25    13     2   ar
    26    20    14    1
    27    13     7   ar
    28    18    16    1
    29    29    27    1
    30    19    21    1
    31    19    22    1
    32    24    25    1
    33    24    26    1
@<TRIPOS>MOLECULE
*****
 29 33 0 0 0
SMALL
GASTEIGER

@<TRIPOS>ATOM
      1 C         142.2878  141.4437  164.1491 C.3     1  UNL1        0.0339
      2 C         141.7238  141.6974  165.5157 C.ar    1  UNL1        0.0095
      3 C         140.8253  142.8756  165.7493 C.ar    1  UNL1        0.0730
      4 C         140.2613  143.1293  167.1159 C.ar    1  UNL1        0.1531
      5 F         139.3627  144.3076  167.3495 F       1  UNL1       -0.2029
      6 C         140.5958  142.2050  168.2488 C.ar    1  UNL1        0.0321
      7 C         141.4944  141.0269  168.0152 C.ar    1  UNL1        0.0154
      8 C         141.8289  140.1024  169.1482 C.ar    1  UNL1       -0.0004
      9 C         142.7275  138.9243  168.9146 C.ar    1  UNL1        0.0579
     10 C         143.2914  138.6705  167.5480 C.ar    1  UNL1        0.2606
     11 O         144.1900  137.4923  167.3144 O.2     1  UNL1       -0.2670
     12 N         142.9569  139.5949  166.4151 N.ar    1  UNL1       -0.2977
     13 C         142.0583  140.7731  166.6487 C.ar    1  UNL1        0.0594
     14 N         140.4907  143.8000  164.6163 N.pl3   1  UNL1       -0.3046
     15 C         141.4276  144.7763  163.9690 C.3     1  UNL1        0.0922
     16 C         140.6765  145.4901  162.8844 C.3     1  UNL1        0.0357
     17 C         139.6862  146.0231  161.8918 C.3     1  UNL1        0.0190
     18 C         139.2754  144.9549  162.8615 C.3     1  UNL1        0.0590
     19 N         137.8594  144.8420  162.3797 N.3     1  UNL1       -0.3218
     20 C         139.1606  143.9104  163.9318 C.3     1  UNL1        0.1049
     21 H         137.3690  144.1354  162.9280 H       1  UNL1        0.1188
     22 H         137.8554  144.5721  161.3960 H       1  UNL1        0.1188
     23 C         141.2649  140.3562  170.5148 C.3     1  UNL1        0.0924
     24 N         140.0500  139.6070  170.9757 N.3     1  UNL1       -0.3175
     25 H         139.2476  139.8775  170.4070 H       1  UNL1        0.1192
     26 H         139.8641  139.8294  171.9537 H       1  UNL1        0.1192
     27 C         143.5209  139.3411  165.0485 C.3     1  UNL1        0.0885
     28 C         143.3748  138.7736  163.6677 C.3     1  UNL1        0.0246
     29 C         144.6439  139.4691  164.0624 C.3     1  UNL1        0.0246
@<TRIPOS>BOND
     1     1     2    1
     2     2     3   ar
     3     3    14    1
     4    14    15    1
     5    15    16    1
     6    16    17    1
     7    17    18    1
     8    18    19    1
     9    18    20    1
    10     3     4   ar
    11     4     5    1
    12     4     6   ar
    13     6     7   ar
    14     7     8   ar
    15     8    23    1
    16    23    24    1
    17     8     9   ar
    18     9    10   ar
    19    10    11    2
    20    10    12   ar
    21    12    27    1
    22    27    28    1
    23    28    29    1
    24    12    13   ar
    25    13     2   ar
    26    20    14    1
    27    13     7   ar
    28    18    16    1
    29    29    27    1
    30    19    21    1
    31    19    22    1
    32    24    25    1
    33    24    26    1
@<TRIPOS>MOLECULE
*****
 29 33 0 0 0
SMALL
GASTEIGER

@<TRIPOS>ATOM
      1 C         140.1736  138.9979  165.0944 C.3     1  UNL1        0.0339
      2 C         139.9219  140.4758  165.1412 C.ar    1  UNL1        0.0095
      3 C         140.3084  141.2643  166.3573 C.ar    1  UNL1        0.0730
      4 C         140.0566  142.7423  166.4041 C.ar    1  UNL1        0.1531
      5 F         140.4432  143.5308  167.6202 F       1  UNL1       -0.2029
      6 C         139.4184  143.4318  165.2348 C.ar    1  UNL1        0.0321
      7 C         139.0319  142.6433  164.0188 C.ar    1  UNL1        0.0154
      8 C         138.3936  143.3328  162.8494 C.ar    1  UNL1       -0.0004
      9 C         138.0071  142.5443  161.6334 C.ar    1  UNL1        0.0579
     10 C         138.2588  141.0663  161.5866 C.ar    1  UNL1        0.2606
     11 O         137.8723  140.2779  160.3704 O.2     1  UNL1       -0.2670
     12 N         138.8971  140.3768  162.7558 N.ar    1  UNL1       -0.2977
     13 C         139.2836  141.1653  163.9720 C.ar    1  UNL1        0.0594
     14 N         140.9467  140.5748  167.5266 N.pl3   1  UNL1       -0.3046
     15 C         142.3555  140.0633  167.5870 C.3     1  UNL1        0.0922
     16 C         142.5678  139.4481  168.9385 C.3     1  UNL1        0.0357
     17 C         142.4817  138.9167  170.3385 C.3     1  UNL1        0.0190
     18 C         141.2901  139.5795  169.7134 C.3     1  UNL1        0.0590
     19 N         140.3825  139.4191  170.8968 N.3     1  UNL1       -0.3218
     20 C         140.2882  140.2759  168.8408 C.3     1  UNL1        0.1049
     21 H         139.4698  139.8208  170.6823 H       1  UNL1        0.1188
     22 H         140.7849  139.8998  171.7015 H       1  UNL1        0.1188
     23 C         138.1418  144.8108  162.8963 C.3     1  UNL1        0.0924
     24 N         138.9447  145.7361  162.0308 N.3     1  UNL1       -0.3175
     25 H         139.9201  145.7196  162.3288 H       1  UNL1        0.1192
     26 H         138.5791  146.6845  162.1164 H       1  UNL1        0.1192
     27 C         139.1489  138.8989  162.7090 C.3     1  UNL1        0.0885
     28 C         140.0192  137.7411  162.3190 C.3     1  UNL1        0.0246
     29 C         138.7146  137.4968  163.0178 C.3     1  UNL1        0.0246
@<TRIPOS>BOND
     1     1     2    1
     2     2     3   ar
     3     3    14    1
     4    14    15    1
     5    15    16    1
     6    16    17    1
     7    17    18    1
     8    18    19    1
     9    18    20    1
    10     3     4   ar
    11     4     5    1
    12     4     6   ar
    13     6     7   ar
    14     7     8   ar
    15     8    23    1
    16    23    24    1
    17     8     9   ar
    18     9    10   ar
    19    10    11    2
    20    10    12   ar
    21    12    27    1
    22    27    28    1
    23    28    29    1
    24    12    13   ar
    25    13     2   ar
    26    20    14    1
    27    13     7   ar
    28    18    16    1
    29    29    27    1
    30    19    21    1
    31    19    22    1
    32    24    25    1
    33    24    26    1
@<TRIPOS>MOLECULE
*****
 29 33 0 0 0
SMALL
GASTEIGER

@<TRIPOS>ATOM
      1 C         140.1182  143.0939  166.2177 C.3     1  UNL1        0.0339
      2 C         140.4743  141.6692  165.9121 C.ar    1  UNL1        0.0095
      3 C         141.3797  140.9080  166.8345 C.ar    1  UNL1        0.0730
      4 C         141.7358  139.4833  166.5289 C.ar    1  UNL1        0.1531
      5 F         142.6413  138.7222  167.4513 F       1  UNL1       -0.2029
      6 C         141.1865  138.8198  165.3009 C.ar    1  UNL1        0.0321
      7 C         140.2811  139.5809  164.3786 C.ar    1  UNL1        0.0154
      8 C         139.7317  138.9174  163.1505 C.ar    1  UNL1       -0.0004
      9 C         138.8263  139.6785  162.2282 C.ar    1  UNL1        0.0579
     10 C         138.4702  141.1032  162.5337 C.ar    1  UNL1        0.2606
     11 O         137.5647  141.8644  161.6113 O.2     1  UNL1       -0.2670
     12 N         139.0195  141.7668  163.7617 N.ar    1  UNL1       -0.2977
     13 C         139.9250  141.0056  164.6841 C.ar    1  UNL1        0.0594
     14 N         141.9290  141.5716  168.0625 N.pl3   1  UNL1       -0.3046
     15 C         143.2444  142.2853  168.1654 C.3     1  UNL1        0.0922
     16 C         143.3878  142.7927  169.5697 C.3     1  UNL1        0.0357
     17 C         143.2502  143.1673  171.0156 C.3     1  UNL1        0.0190
     18 C         142.1611  142.3926  170.3346 C.3     1  UNL1        0.0590
     19 N         141.2639  142.2970  171.5329 N.3     1  UNL1       -0.3218
     20 C         141.2595  141.6379  169.4031 C.3     1  UNL1        0.1049
     21 H         140.4189  141.7823  171.2848 H       1  UNL1        0.1188
     22 H         141.0116  143.2349  171.8445 H       1  UNL1        0.1188
     23 C         140.0879  137.4926  162.8450 C.3     1  UNL1        0.0924
     24 N         141.4089  137.1688  162.2126 N.3     1  UNL1       -0.3175
     25 H         141.4393  137.5582  161.2703 H       1  UNL1        0.1192
     26 H         141.5245  136.1565  162.1660 H       1  UNL1        0.1192
     27 C         138.6634  143.1915  164.0673 C.3     1  UNL1        0.0885
     28 C         138.9411  144.6588  163.9264 C.3     1  UNL1        0.0246
     29 C         137.7689  144.1918  164.7374 C.3     1  UNL1        0.0246
@<TRIPOS>BOND
     1     1     2    1
     2     2     3   ar
     3     3    14    1
     4    14    15    1
     5    15    16    1
     6    16    17    1
     7    17    18    1
     8    18    19    1
     9    18    20    1
    10     3     4   ar
    11     4     5    1
    12     4     6   ar
    13     6     7   ar
    14     7     8   ar
    15     8    23    1
    16    23    24    1
    17     8     9   ar
    18     9    10   ar
    19    10    11    2
    20    10    12   ar
    21    12    27    1
    22    27    28    1
    23    28    29    1
    24    12    13   ar
    25    13     2   ar
    26    20    14    1
    27    13     7   ar
    28    18    16    1
    29    29    27    1
    30    19    21    1
    31    19    22    1
    32    24    25    1
    33    24    26    1
@<TRIPOS>MOLECULE
*****
 29 33 0 0 0
SMALL
GASTEIGER

@<TRIPOS>ATOM
      1 C         140.2475  142.8634  166.1997 C.3     1  UNL1        0.0339
      2 C         141.3235  142.5740  165.1955 C.ar    1  UNL1        0.0095
      3 C         142.4626  141.6675  165.5570 C.ar    1  UNL1        0.0730
      4 C         143.5386  141.3781  164.5528 C.ar    1  UNL1        0.1531
      5 F         144.6777  140.4715  164.9143 F       1  UNL1       -0.2029
      6 C         143.4756  141.9952  163.1871 C.ar    1  UNL1        0.0321
      7 C         142.3366  142.9018  162.8257 C.ar    1  UNL1        0.0154
      8 C         142.2735  143.5190  161.4599 C.ar    1  UNL1       -0.0004
      9 C         141.1345  144.4256  161.0985 C.ar    1  UNL1        0.0579
     10 C         140.0584  144.7149  162.1027 C.ar    1  UNL1        0.2606
     11 O         138.9193  145.6215  161.7411 O.2     1  UNL1       -0.2670
     12 N         140.1214  144.0978  163.4683 N.ar    1  UNL1       -0.2977
     13 C         141.2605  143.1912  163.8299 C.ar    1  UNL1        0.0594
     14 N         142.5256  141.0502  166.9227 N.pl3   1  UNL1       -0.3046
     15 C         142.1069  139.6548  167.2798 C.3     1  UNL1        0.0922
     16 C         142.3410  139.4622  168.7488 C.3     1  UNL1        0.0357
     17 C         142.6772  139.5659  170.2070 C.3     1  UNL1        0.0190
     18 C         142.9043  140.7386  169.2997 C.3     1  UNL1        0.0590
     19 N         143.4446  141.6537  170.3584 N.3     1  UNL1       -0.3218
     20 C         143.0184  141.7201  168.1711 C.3     1  UNL1        0.1049
     21 H         143.6770  142.5554  169.9421 H       1  UNL1        0.1188
     22 H         144.2831  141.2420  170.7680 H       1  UNL1        0.1188
     23 C         143.3495  143.2296  160.4557 C.3     1  UNL1        0.0924
     24 N         143.1751  143.6515  159.0269 N.3     1  UNL1       -0.3175
     25 H         142.4063  143.1273  158.6091 H       1  UNL1        0.1192
     26 H         144.0343  143.4649  158.5100 H       1  UNL1        0.1192
     27 C         139.0454  144.3872  164.4725 C.3     1  UNL1        0.0885
     28 C         138.5821  145.0905  165.7137 C.3     1  UNL1        0.0246
     29 C         137.6450  144.1851  164.9706 C.3     1  UNL1        0.0246
@<TRIPOS>BOND
     1     1     2    1
     2     2     3   ar
     3     3    14    1
     4    14    15    1
     5    15    16    1
     6    16    17    1
     7    17    18    1
     8    18    19    1
     9    18    20    1
    10     3     4   ar
    11     4     5    1
    12     4     6   ar
    13     6     7   ar
    14     7     8   ar
    15     8    23    1
    16    23    24    1
    17     8     9   ar
    18     9    10   ar
    19    10    11    2
    20    10    12   ar
    21    12    27    1
    22    27    28    1
    23    28    29    1
    24    12    13   ar
    25    13     2   ar
    26    20    14    1
    27    13     7   ar
    28    18    16    1
    29    29    27    1
    30    19    21    1
    31    19    22    1
    32    24    25    1
    33    24    26    1
@<TRIPOS>MOLECULE
*****
 29 33 0 0 0
SMALL
GASTEIGER

@<TRIPOS>ATOM
      1 C         143.0647  140.2670  166.0388 C.3     1  UNL1        0.0339
      2 C         141.6844  139.7774  165.7151 C.ar    1  UNL1        0.0095
      3 C         140.6050  139.8351  166.7551 C.ar    1  UNL1        0.0730
      4 C         139.2246  139.3454  166.4314 C.ar    1  UNL1        0.1531
      5 F         138.1453  139.4031  167.4715 F       1  UNL1       -0.2029
      6 C         138.9236  138.7981  165.0677 C.ar    1  UNL1        0.0321
      7 C         140.0029  138.7405  164.0277 C.ar    1  UNL1        0.0154
      8 C         139.7019  138.1931  162.6639 C.ar    1  UNL1       -0.0004
      9 C         140.7812  138.1355  161.6239 C.ar    1  UNL1        0.0579
     10 C         142.1616  138.6251  161.9476 C.ar    1  UNL1        0.2606
     11 O         143.2410  138.5674  160.9075 O.2     1  UNL1       -0.2670
     12 N         142.4627  139.1724  163.3113 N.ar    1  UNL1       -0.2977
     13 C         141.3833  139.2301  164.3514 C.ar    1  UNL1        0.0594
     14 N         140.9061  140.3824  168.1190 N.pl3   1  UNL1       -0.3046
     15 C         140.3024  141.6132  168.7280 C.3     1  UNL1        0.0922
     16 C         140.8868  141.7865  170.0986 C.3     1  UNL1        0.0357
     17 C         141.6299  141.6987  171.3986 C.3     1  UNL1        0.0190
     18 C         141.8516  140.6628  170.3366 C.3     1  UNL1        0.0590
     19 N         142.8554  139.8590  171.1087 N.3     1  UNL1       -0.3218
     20 C         141.8635  139.7951  169.1131 C.3     1  UNL1        0.1049
     21 H         143.1582  139.0632  170.5470 H       1  UNL1        0.1188
     22 H         142.4299  139.5230  171.9726 H       1  UNL1        0.1188
     23 C         138.3215  137.7035  162.3402 C.3     1  UNL1        0.0924
     24 N         137.3592  138.5975  161.6159 N.3     1  UNL1       -0.3175
     25 H         137.1234  139.3938  162.2081 H       1  UNL1        0.1192
     26 H         136.5113  138.0757  161.3942 H       1  UNL1        0.1192
     27 C         143.8431  139.6620  163.6350 C.3     1  UNL1        0.0885
     28 C         145.1774  139.4491  164.2862 C.3     1  UNL1        0.0246
     29 C         144.8995  140.7230  163.5445 C.3     1  UNL1        0.0246
@<TRIPOS>BOND
     1     1     2    1
     2     2     3   ar
     3     3    14    1
     4    14    15    1
     5    15    16    1
     6    16    17    1
     7    17    18    1
     8    18    19    1
     9    18    20    1
    10     3     4   ar
    11     4     5    1
    12     4     6   ar
    13     6     7   ar
    14     7     8   ar
    15     8    23    1
    16    23    24    1
    17     8     9   ar
    18     9    10   ar
    19    10    11    2
    20    10    12   ar
    21    12    27    1
    22    27    28    1
    23    28    29    1
    24    12    13   ar
    25    13     2   ar
    26    20    14    1
    27    13     7   ar
    28    18    16    1
    29    29    27    1
    30    19    21    1
    31    19    22    1
    32    24    25    1
    33    24    26    1
@<TRIPOS>MOLECULE
*****
 29 33 0 0 0
SMALL
GASTEIGER

@<TRIPOS>ATOM
      1 C         142.7724  141.2967  165.4968 C.3     1  UNL1        0.0339
      2 C         141.8533  142.3373  164.9290 C.ar    1  UNL1        0.0095
      3 C         140.6775  142.8159  165.7281 C.ar    1  UNL1        0.0730
      4 C         139.7584  143.8565  165.1603 C.ar    1  UNL1        0.1531
      5 F         138.5826  144.3350  165.9595 F       1  UNL1       -0.2029
      6 C         140.0150  144.4185  163.7935 C.ar    1  UNL1        0.0321
      7 C         141.1907  143.9399  162.9945 C.ar    1  UNL1        0.0154
      8 C         141.4474  144.5020  161.6276 C.ar    1  UNL1       -0.0004
      9 C         142.6231  144.0234  160.8285 C.ar    1  UNL1        0.0579
     10 C         143.5423  142.9828  161.3963 C.ar    1  UNL1        0.2606
     11 O         144.7181  142.5043  160.5971 O.2     1  UNL1       -0.2670
     12 N         143.2857  142.4208  162.7631 N.ar    1  UNL1       -0.2977
     13 C         142.1099  142.8993  163.5622 C.ar    1  UNL1        0.0594
     14 N         140.4209  142.2538  167.0950 N.pl3   1  UNL1       -0.3046
     15 C         139.9025  140.8797  167.4002 C.3     1  UNL1        0.0922
     16 C         139.7988  140.7438  168.8904 C.3     1  UNL1        0.0357
     17 C         139.8036  140.9022  170.3820 C.3     1  UNL1        0.0190
     18 C         140.2530  142.0340  169.5062 C.3     1  UNL1        0.0590
     19 N         140.5636  142.9841  170.6247 N.3     1  UNL1       -0.3218
     20 C         140.6375  142.9672  168.3966 C.3     1  UNL1        0.1049
     21 H         140.9027  143.8650  170.2382 H       1  UNL1        0.1188
     22 H         141.2804  142.5783  171.2263 H       1  UNL1        0.1188
     23 C         140.5283  145.5426  161.0598 C.3     1  UNL1        0.0924
     24 N         139.9249  145.3490  159.7003 N.3     1  UNL1       -0.3175
     25 H         140.6618  145.3692  158.9953 H       1  UNL1        0.1192
     26 H         139.2567  146.0971  159.5152 H       1  UNL1        0.1192
     27 C         144.2048  141.3802  163.3308 C.3     1  UNL1        0.0885
     28 C         144.5336  139.9400  163.5909 C.3     1  UNL1        0.0246
     29 C         145.4680  141.0181  164.0541 C.3     1  UNL1        0.0246
@<TRIPOS>BOND
     1     1     2    1
     2     2     3   ar
     3     3    14    1
     4    14    15    1
     5    15    16    1
     6    16    17    1
     7    17    18    1
     8    18    19    1
     9    18    20    1
    10     3     4   ar
    11     4     5    1
    12     4     6   ar
    13     6     7   ar
    14     7     8   ar
    15     8    23    1
    16    23    24    1
    17     8     9   ar
    18     9    10   ar
    19    10    11    2
    20    10    12   ar
    21    12    27    1
    22    27    28    1
    23    28    29    1
    24    12    13   ar
    25    13     2   ar
    26    20    14    1
    27    13     7   ar
    28    18    16    1
    29    29    27    1
    30    19    21    1
    31    19    22    1
    32    24    25    1
    33    24    26    1
@<TRIPOS>MOLECULE
*****
 29 33 0 0 0
SMALL
GASTEIGER

@<TRIPOS>ATOM
      1 C         142.7778  140.7662  166.2031 C.3     1  UNL1        0.0339
      2 C         141.4721  140.1362  165.8182 C.ar    1  UNL1        0.0095
      3 C         140.3654  140.0292  166.8250 C.ar    1  UNL1        0.0730
      4 C         139.0596  139.3992  166.4401 C.ar    1  UNL1        0.1531
      5 F         137.9529  139.2923  167.4470 F       1  UNL1       -0.2029
      6 C         138.8606  138.8762  165.0484 C.ar    1  UNL1        0.0321
      7 C         139.9674  138.9831  164.0417 C.ar    1  UNL1        0.0154
      8 C         139.7684  138.4601  162.6499 C.ar    1  UNL1       -0.0004
      9 C         140.8752  138.5670  161.6431 C.ar    1  UNL1        0.0579
     10 C         142.1809  139.1970  162.0280 C.ar    1  UNL1        0.2606
     11 O         143.2877  139.3040  161.0212 O.2     1  UNL1       -0.2670
     12 N         142.3799  139.7201  163.4197 N.ar    1  UNL1       -0.2977
     13 C         141.2731  139.6131  164.4266 C.ar    1  UNL1        0.0594
     14 N         140.5643  140.5523  168.2168 N.pl3   1  UNL1       -0.3046
     15 C         141.1866  139.8051  169.3589 C.3     1  UNL1        0.0922
     16 C         141.1828  140.7053  170.5587 C.3     1  UNL1        0.0357
     17 C         141.0428  141.8100  171.5637 C.3     1  UNL1        0.0190
     18 C         140.5582  142.0089  170.1581 C.3     1  UNL1        0.0590
     19 N         140.0684  143.4125  170.3581 N.3     1  UNL1       -0.3218
     20 C         140.1759  141.9143  168.7107 C.3     1  UNL1        0.1049
     21 H         139.6780  143.7642  169.4839 H       1  UNL1        0.1188
     22 H         140.8462  144.0061  170.6463 H       1  UNL1        0.1188
     23 C         138.4627  137.8301  162.2650 C.3     1  UNL1        0.0924
     24 N         137.3844  138.6627  161.6373 N.3     1  UNL1       -0.3175
     25 H         137.0497  139.3505  162.3121 H       1  UNL1        0.1192
     26 H         136.6115  138.0605  161.3538 H       1  UNL1        0.1192
     27 C         143.6856  140.3501  163.8046 C.3     1  UNL1        0.0885
     28 C         144.5315  141.5743  163.9938 C.3     1  UNL1        0.0246
     29 C         145.1013  140.2171  164.2821 C.3     1  UNL1        0.0246
@<TRIPOS>BOND
     1     1     2    1
     2     2     3   ar
     3     3    14    1
     4    14    15    1
     5    15    16    1
     6    16    17    1
     7    17    18    1
     8    18    19    1
     9    18    20    1
    10     3     4   ar
    11     4     5    1
    12     4     6   ar
    13     6     7   ar
    14     7     8   ar
    15     8    23    1
    16    23    24    1
    17     8     9   ar
    18     9    10   ar
    19    10    11    2
    20    10    12   ar
    21    12    27    1
    22    27    28    1
    23    28    29    1
    24    12    13   ar
    25    13     2   ar
    26    20    14    1
    27    13     7   ar
    28    18    16    1
    29    29    27    1
    30    19    21    1
    31    19    22    1
    32    24    25    1
    33    24    26    1
