@<TRIPOS>MOLECULE
*****
 28 32 0 0 0
SMALL
GASTEIGER

@<TRIPOS>ATOM
      1 C         138.1007  138.7054  166.8472 C.3     1  UNL1        0.0883
      2 N         138.3726  138.8244  165.3768 N.3     1  UNL1       -0.2715
      3 C         138.1445  140.1304  164.6752 C.3     1  UNL1        0.0725
      4 C         138.4164  140.2494  163.2049 C.3     1  UNL1        0.0214
      5 C         138.9162  139.0623  162.4361 C.3     1  UNL1        0.0216
      6 C         139.4160  137.9677  161.5405 C.3     1  UNL1        0.0088
      7 C         139.5447  138.5257  160.1540 C.3     1  UNL1        0.0264
      8 C         139.1244  139.9651  160.1928 C.ar    1  UNL1       -0.0261
      9 C         139.0452  141.0167  159.1261 C.ar    1  UNL1       -0.0046
     10 C         138.5776  142.3998  159.4697 C.ar    1  UNL1       -0.0003
     11 C         138.1892  142.7315  160.8801 C.ar    1  UNL1       -0.0003
     12 C         138.2684  141.6800  161.9468 C.ar    1  UNL1       -0.0046
     13 C         138.7360  140.2968  161.6032 C.ar    1  UNL1       -0.0266
     14 C         139.1443  137.7563  163.1377 C.3     1  UNL1        0.0214
     15 C         138.8724  137.6373  164.6080 C.3     1  UNL1        0.0725
     16 O         140.7493  142.1784  172.1550 O.3     1  UNL1       -0.5058
     17 C         141.2563  141.9856  170.7565 C.ar    1  UNL1        0.1306
     18 C         142.5522  142.6128  170.3353 C.ar    1  UNL1        0.0363
     19 C         143.0591  142.4200  168.9368 C.ar    1  UNL1        0.0028
     20 C         142.2702  141.5999  167.9595 C.ar    1  UNL1       -0.0043
     21 C         140.9743  140.9727  168.3807 C.ar    1  UNL1       -0.0206
     22 C         140.4674  141.1656  169.7792 C.ar    1  UNL1        0.0234
     23 C         139.1716  140.5384  170.2004 C.3     1  UNL1        0.0983
     24 N         138.3827  139.7183  169.2230 N.3     1  UNL1       -0.2934
     25 C         138.8896  139.5254  167.8245 C.3     1  UNL1        0.0748
     26 C         140.1855  140.1527  167.4033 C.3     1  UNL1        0.0433
     27 H         141.2421  142.6907  172.7655 H       1  UNL1        0.2922
     28 H         137.4643  140.1553  169.1457 H       1  UNL1        0.1236
@<TRIPOS>BOND
     1    16    17    1
     2    17    18   ar
     3    18    19   ar
     4    19    20   ar
     5    20    21   ar
     6    21    22   ar
     7    22    23    1
     8    23    24    1
     9    24    25    1
    10    25     1    1
    11     1     2    1
    12     2     3    1
    13     3     4    1
    14     4     5    1
    15     5     6    1
    16     6     7    1
    17     7     8    1
    18     8     9   ar
    19     9    10   ar
    20    10    11   ar
    21    11    12   ar
    22    12    13   ar
    23     5    14    1
    24    14    15    1
    25    25    26    1
    26    22    17   ar
    27    15     2    1
    28    26    21    1
    29    13     5    1
    30    13     8   ar
    31    16    27    1
    32    24    28    1
@<TRIPOS>MOLECULE
*****
 28 32 0 0 0
SMALL
GASTEIGER

@<TRIPOS>ATOM
      1 C         143.7259  138.3419  166.4592 C.3     1  UNL1        0.0883
      2 N         143.4944  138.6760  165.0153 N.3     1  UNL1       -0.2715
      3 C         142.2008  138.2988  164.3563 C.3     1  UNL1        0.0725
      4 C         141.9694  138.6329  162.9124 C.3     1  UNL1        0.0214
      5 C         143.0316  139.3442  162.1276 C.3     1  UNL1        0.0216
      6 C         143.9959  140.0490  161.2202 C.3     1  UNL1        0.0088
      7 C         143.3555  140.1726  159.8693 C.3     1  UNL1        0.0264
      8 C         141.9954  139.5442  159.9419 C.ar    1  UNL1       -0.0261
      9 C         140.9133  139.3720  158.9175 C.ar    1  UNL1       -0.0046
     10 C         139.6311  138.6879  159.2887 C.ar    1  UNL1       -0.0003
     11 C         139.4309  138.1759  160.6844 C.ar    1  UNL1       -0.0003
     12 C         140.5129  138.3481  161.7088 C.ar    1  UNL1       -0.0046
     13 C         141.7952  139.0322  161.3376 C.ar    1  UNL1       -0.0266
     14 C         144.3252  139.7214  162.7867 C.3     1  UNL1        0.0214
     15 C         144.5566  139.3872  164.2305 C.3     1  UNL1        0.0725
     16 O         140.7695  140.8498  172.1355 O.3     1  UNL1       -0.5058
     17 C         140.8550  141.4061  170.7450 C.ar    1  UNL1        0.1306
     18 C         140.2227  142.7284  170.4261 C.ar    1  UNL1        0.0363
     19 C         140.3082  143.2847  169.0357 C.ar    1  UNL1        0.0028
     20 C         141.0260  142.5186  167.9642 C.ar    1  UNL1       -0.0043
     21 C         141.6582  141.1963  168.2832 C.ar    1  UNL1       -0.0206
     22 C         141.5727  140.6400  169.6736 C.ar    1  UNL1        0.0234
     23 C         142.2049  139.3177  169.9926 C.3     1  UNL1        0.0983
     24 N         142.9226  138.5516  168.9211 N.3     1  UNL1       -0.2934
     25 C         143.0081  139.1079  167.5307 C.3     1  UNL1        0.0748
     26 C         142.3759  140.4303  167.2117 C.3     1  UNL1        0.0433
     27 H         140.3211  141.3283  172.8048 H       1  UNL1        0.2922
     28 H         142.4609  137.6451  168.8477 H       1  UNL1        0.1236
@<TRIPOS>BOND
     1    16    17    1
     2    17    18   ar
     3    18    19   ar
     4    19    20   ar
     5    20    21   ar
     6    21    22   ar
     7    22    23    1
     8    23    24    1
     9    24    25    1
    10    25     1    1
    11     1     2    1
    12     2     3    1
    13     3     4    1
    14     4     5    1
    15     5     6    1
    16     6     7    1
    17     7     8    1
    18     8     9   ar
    19     9    10   ar
    20    10    11   ar
    21    11    12   ar
    22    12    13   ar
    23     5    14    1
    24    14    15    1
    25    25    26    1
    26    22    17   ar
    27    15     2    1
    28    26    21    1
    29    13     5    1
    30    13     8   ar
    31    16    27    1
    32    24    28    1
@<TRIPOS>MOLECULE
*****
 28 32 0 0 0
SMALL
GASTEIGER

@<TRIPOS>ATOM
      1 C         143.5834  138.6000  166.1845 C.3     1  UNL1        0.0883
      2 N         142.9071  138.5612  164.8461 N.3     1  UNL1       -0.2715
      3 C         143.6155  139.0855  163.6323 C.3     1  UNL1        0.0725
      4 C         142.9392  139.0466  162.2940 C.3     1  UNL1        0.0214
      5 C         141.5545  138.4835  162.1695 C.3     1  UNL1        0.0216
      6 C         140.1793  137.9527  161.8916 C.3     1  UNL1        0.0088
      7 C         139.9095  138.1097  160.4244 C.3     1  UNL1        0.0264
      8 C         141.1180  138.7376  159.7955 C.ar    1  UNL1       -0.0261
      9 C         141.4241  139.1288  158.3802 C.ar    1  UNL1       -0.0046
     10 C         142.7466  139.7510  158.0433 C.ar    1  UNL1       -0.0003
     11 C         143.7633  139.9820  159.1218 C.ar    1  UNL1       -0.0003
     12 C         143.4573  139.5907  160.5371 C.ar    1  UNL1       -0.0046
     13 C         142.1346  138.9685  160.8740 C.ar    1  UNL1       -0.0266
     14 C         140.8461  137.9592  163.3833 C.3     1  UNL1        0.0214
     15 C         141.5224  137.9981  164.7216 C.3     1  UNL1        0.0725
     16 O         140.8939  140.6786  172.1591 O.3     1  UNL1       -0.5058
     17 C         140.9218  141.3384  170.8123 C.ar    1  UNL1        0.1306
     18 C         140.2842  142.6829  170.6225 C.ar    1  UNL1        0.0363
     19 C         140.3121  143.3427  169.2757 C.ar    1  UNL1        0.0028
     20 C         140.9775  142.6581  168.1187 C.ar    1  UNL1       -0.0043
     21 C         141.6151  141.3137  168.3086 C.ar    1  UNL1       -0.0206
     22 C         141.5872  140.6538  169.6553 C.ar    1  UNL1        0.0234
     23 C         142.2247  139.3094  169.8452 C.3     1  UNL1        0.0983
     24 N         142.8901  138.6248  168.6882 N.3     1  UNL1       -0.2934
     25 C         142.9180  139.2846  167.3414 C.3     1  UNL1        0.0748
     26 C         142.2805  140.6291  167.1516 C.3     1  UNL1        0.0433
     27 H         140.4783  141.1062  172.8818 H       1  UNL1        0.2922
     28 H         142.4201  137.7277  168.5669 H       1  UNL1        0.1236
@<TRIPOS>BOND
     1    16    17    1
     2    17    18   ar
     3    18    19   ar
     4    19    20   ar
     5    20    21   ar
     6    21    22   ar
     7    22    23    1
     8    23    24    1
     9    24    25    1
    10    25     1    1
    11     1     2    1
    12     2     3    1
    13     3     4    1
    14     4     5    1
    15     5     6    1
    16     6     7    1
    17     7     8    1
    18     8     9   ar
    19     9    10   ar
    20    10    11   ar
    21    11    12   ar
    22    12    13   ar
    23     5    14    1
    24    14    15    1
    25    25    26    1
    26    22    17   ar
    27    15     2    1
    28    26    21    1
    29    13     5    1
    30    13     8   ar
    31    16    27    1
    32    24    28    1
@<TRIPOS>MOLECULE
*****
 28 32 0 0 0
SMALL
GASTEIGER

@<TRIPOS>ATOM
      1 C         141.8209  138.4292  157.8218 C.3     1  UNL1        0.0883
      2 N         141.9655  137.1376  157.0727 N.3     1  UNL1       -0.2715
      3 C         142.9828  136.1263  157.5110 C.3     1  UNL1        0.0725
      4 C         143.1274  134.8348  156.7620 C.3     1  UNL1        0.0214
      5 C         142.2547  134.5547  155.5746 C.3     1  UNL1        0.0216
      6 C         141.4569  134.1372  154.3749 C.3     1  UNL1        0.0088
      7 C         141.9316  132.7784  153.9525 C.3     1  UNL1        0.0264
      8 C         143.0229  132.3561  154.8911 C.ar    1  UNL1       -0.0261
      9 C         143.8605  131.1139  154.9625 C.ar    1  UNL1       -0.0046
     10 C         144.8977  130.9694  156.0363 C.ar    1  UNL1       -0.0003
     11 C         145.0975  132.0672  157.0389 C.ar    1  UNL1       -0.0003
     12 C         144.2598  133.3095  156.9675 C.ar    1  UNL1       -0.0046
     13 C         143.2225  133.4539  155.8936 C.ar    1  UNL1       -0.0266
     14 C         141.2374  135.5661  155.1362 C.3     1  UNL1        0.0214
     15 C         141.0928  136.8576  155.8853 C.3     1  UNL1        0.0725
     16 O         145.1912  139.4190  163.7303 O.3     1  UNL1       -0.5058
     17 C         143.8227  138.8670  163.4610 C.ar    1  UNL1        0.1306
     18 C         142.9547  138.4244  164.6015 C.ar    1  UNL1        0.0363
     19 C         141.5862  137.8724  164.3322 C.ar    1  UNL1        0.0028
     20 C         141.0858  137.7629  162.9223 C.ar    1  UNL1       -0.0043
     21 C         141.9538  138.2055  161.7819 C.ar    1  UNL1       -0.0206
     22 C         143.3222  138.7575  162.0512 C.ar    1  UNL1        0.0234
     23 C         144.1903  139.2001  160.9108 C.3     1  UNL1        0.0983
     24 N         143.6898  139.0907  159.5009 N.3     1  UNL1       -0.2934
     25 C         142.3213  138.5386  159.2316 C.3     1  UNL1        0.0748
     26 C         141.4533  138.0961  160.3721 C.3     1  UNL1        0.0433
     27 H         145.5038  139.4874  164.6110 H       1  UNL1        0.2922
     28 H         144.3506  138.4974  158.9991 H       1  UNL1        0.1236
@<TRIPOS>BOND
     1    16    17    1
     2    17    18   ar
     3    18    19   ar
     4    19    20   ar
     5    20    21   ar
     6    21    22   ar
     7    22    23    1
     8    23    24    1
     9    24    25    1
    10    25     1    1
    11     1     2    1
    12     2     3    1
    13     3     4    1
    14     4     5    1
    15     5     6    1
    16     6     7    1
    17     7     8    1
    18     8     9   ar
    19     9    10   ar
    20    10    11   ar
    21    11    12   ar
    22    12    13   ar
    23     5    14    1
    24    14    15    1
    25    25    26    1
    26    22    17   ar
    27    15     2    1
    28    26    21    1
    29    13     5    1
    30    13     8   ar
    31    16    27    1
    32    24    28    1
@<TRIPOS>MOLECULE
*****
 28 32 0 0 0
SMALL
GASTEIGER

@<TRIPOS>ATOM
      1 C         138.6375  138.7969  166.3241 C.3     1  UNL1        0.0883
      2 N         138.9820  139.0821  164.8922 N.3     1  UNL1       -0.2715
      3 C         140.1338  138.3743  164.2426 C.3     1  UNL1        0.0725
      4 C         140.4783  138.6595  162.8109 C.3     1  UNL1        0.0214
      5 C         139.6708  139.6527  162.0288 C.3     1  UNL1        0.0216
      6 C         138.9581  140.6149  161.1253 C.3     1  UNL1        0.0088
      7 C         139.6353  140.5827  159.7872 C.3     1  UNL1        0.0264
      8 C         140.7666  139.6006  159.8637 C.ar    1  UNL1       -0.0261
      9 C         141.7795  139.1554  158.8508 C.ar    1  UNL1       -0.0046
     10 C         142.8143  138.1355  159.2233 C.ar    1  UNL1       -0.0003
     11 C         142.8363  137.5607  160.6087 C.ar    1  UNL1       -0.0003
     12 C         141.8234  138.0059  161.6215 C.ar    1  UNL1       -0.0046
     13 C         140.7885  139.0258  161.2490 C.ar    1  UNL1       -0.0266
     14 C         138.5190  140.3606  162.6784 C.3     1  UNL1        0.0214
     15 C         138.1746  140.0753  164.1101 C.3     1  UNL1        0.0725
     16 O         140.5614  142.0672  172.0559 O.3     1  UNL1       -0.5058
     17 C         141.2328  141.9502  170.7196 C.ar    1  UNL1        0.1306
     18 C         142.5531  142.6215  170.4823 C.ar    1  UNL1        0.0363
     19 C         143.2245  142.5045  169.1461 C.ar    1  UNL1        0.0028
     20 C         142.5756  141.7161  168.0471 C.ar    1  UNL1       -0.0043
     21 C         141.2554  141.0448  168.2845 C.ar    1  UNL1       -0.0206
     22 C         140.5840  141.1619  169.6207 C.ar    1  UNL1        0.0234
     23 C         139.2638  140.4906  169.8581 C.3     1  UNL1        0.0983
     24 N         138.6149  139.7022  168.7592 N.3     1  UNL1       -0.2934
     25 C         139.2863  139.5852  167.4229 C.3     1  UNL1        0.0748
     26 C         140.6066  140.2565  167.1856 C.3     1  UNL1        0.0433
     27 H         140.9667  142.5596  172.7423 H       1  UNL1        0.2922
     28 H         137.7013  140.1246  168.5937 H       1  UNL1        0.1236
@<TRIPOS>BOND
     1    16    17    1
     2    17    18   ar
     3    18    19   ar
     4    19    20   ar
     5    20    21   ar
     6    21    22   ar
     7    22    23    1
     8    23    24    1
     9    24    25    1
    10    25     1    1
    11     1     2    1
    12     2     3    1
    13     3     4    1
    14     4     5    1
    15     5     6    1
    16     6     7    1
    17     7     8    1
    18     8     9   ar
    19     9    10   ar
    20    10    11   ar
    21    11    12   ar
    22    12    13   ar
    23     5    14    1
    24    14    15    1
    25    25    26    1
    26    22    17   ar
    27    15     2    1
    28    26    21    1
    29    13     5    1
    30    13     8   ar
    31    16    27    1
    32    24    28    1
@<TRIPOS>MOLECULE
*****
 28 32 0 0 0
SMALL
GASTEIGER

@<TRIPOS>ATOM
      1 C         139.0853  144.5542  162.5274 C.3     1  UNL1        0.0883
      2 N         139.1241  143.5004  163.5942 N.3     1  UNL1       -0.2715
      3 C         139.9347  143.7208  164.8369 C.3     1  UNL1        0.0725
      4 C         139.9735  142.6671  165.9037 C.3     1  UNL1        0.0214
      5 C         139.2017  141.3929  165.7278 C.3     1  UNL1        0.0216
      6 C         138.4855  140.0755  165.6922 C.3     1  UNL1        0.0088
      7 C         138.8047  139.3399  166.9600 C.3     1  UNL1        0.0264
      8 C         139.7182  140.2028  167.7791 C.ar    1  UNL1       -0.0261
      9 C         140.3584  139.9971  169.1199 C.ar    1  UNL1       -0.0046
     10 C         141.2438  141.0602  169.6993 C.ar    1  UNL1       -0.0003
     11 C         141.4892  142.3291  168.9378 C.ar    1  UNL1       -0.0003
     12 C         140.8491  142.5347  167.5969 C.ar    1  UNL1       -0.0046
     13 C         139.9636  141.4716  167.0176 C.ar    1  UNL1       -0.0266
     14 C         138.3912  141.1725  164.4851 C.3     1  UNL1        0.0214
     15 C         138.3524  142.2263  163.4183 C.3     1  UNL1        0.0725
     16 O         142.6345  145.1524  156.6712 O.3     1  UNL1       -0.5058
     17 C         142.7669  144.1789  157.8046 C.ar    1  UNL1        0.1306
     18 C         143.8197  143.1114  157.7573 C.ar    1  UNL1        0.0363
     19 C         143.9521  142.1378  158.8907 C.ar    1  UNL1        0.0028
     20 C         143.0317  142.2317  160.0714 C.ar    1  UNL1       -0.0043
     21 C         141.9789  143.2991  160.1187 C.ar    1  UNL1       -0.0206
     22 C         141.8465  144.2727  158.9853 C.ar    1  UNL1        0.0234
     23 C         140.7938  145.3401  159.0325 C.3     1  UNL1        0.0983
     24 N         139.8733  145.4340  160.2133 N.3     1  UNL1       -0.2934
     25 C         140.0057  144.4604  161.3467 C.3     1  UNL1        0.0748
     26 C         141.0585  143.3929  161.2994 C.3     1  UNL1        0.0433
     27 H         143.2094  145.0938  155.9336 H       1  UNL1        0.2922
     28 H         138.9232  145.3403  159.8541 H       1  UNL1        0.1236
@<TRIPOS>BOND
     1    16    17    1
     2    17    18   ar
     3    18    19   ar
     4    19    20   ar
     5    20    21   ar
     6    21    22   ar
     7    22    23    1
     8    23    24    1
     9    24    25    1
    10    25     1    1
    11     1     2    1
    12     2     3    1
    13     3     4    1
    14     4     5    1
    15     5     6    1
    16     6     7    1
    17     7     8    1
    18     8     9   ar
    19     9    10   ar
    20    10    11   ar
    21    11    12   ar
    22    12    13   ar
    23     5    14    1
    24    14    15    1
    25    25    26    1
    26    22    17   ar
    27    15     2    1
    28    26    21    1
    29    13     5    1
    30    13     8   ar
    31    16    27    1
    32    24    28    1
@<TRIPOS>MOLECULE
*****
 28 32 0 0 0
SMALL
GASTEIGER

@<TRIPOS>ATOM
      1 C         139.0469  138.9016  166.0781 C.3     1  UNL1        0.0883
      2 N         139.8817  138.7013  164.8480 N.3     1  UNL1       -0.2715
      3 C         139.2644  138.8542  163.4896 C.3     1  UNL1        0.0725
      4 C         140.0992  138.6539  162.2596 C.3     1  UNL1        0.0214
      5 C         141.5513  138.3006  162.3880 C.3     1  UNL1        0.0216
      6 C         143.0086  137.9464  162.3596 C.3     1  UNL1        0.0088
      7 C         143.4334  137.8462  160.9244 C.3     1  UNL1        0.0264
      8 C         142.2385  138.1385  160.0659 C.ar    1  UNL1       -0.0261
      9 C         142.0594  138.1852  158.5773 C.ar    1  UNL1       -0.0046
     10 C         140.7172  138.5127  157.9934 C.ar    1  UNL1       -0.0003
     11 C         139.5540  138.7935  158.8979 C.ar    1  UNL1       -0.0003
     12 C         139.7331  138.7468  160.3864 C.ar    1  UNL1       -0.0046
     13 C         141.0754  138.4193  160.9704 C.ar    1  UNL1       -0.0266
     14 C         142.1687  138.1477  163.7465 C.3     1  UNL1        0.0214
     15 C         141.3339  138.3480  164.9765 C.3     1  UNL1        0.0725
     16 O         140.4964  142.0218  172.0290 O.3     1  UNL1       -0.5058
     17 C         141.2584  141.9664  170.7381 C.ar    1  UNL1        0.1306
     18 C         142.5733  142.6773  170.6123 C.ar    1  UNL1        0.0363
     19 C         143.3353  142.6219  169.3215 C.ar    1  UNL1        0.0028
     20 C         142.7824  141.8556  168.1564 C.ar    1  UNL1       -0.0043
     21 C         141.4675  141.1448  168.2823 C.ar    1  UNL1       -0.0206
     22 C         140.7055  141.2002  169.5731 C.ar    1  UNL1        0.0234
     23 C         139.3907  140.4894  169.6990 C.3     1  UNL1        0.0983
     24 N         138.8378  139.7232  168.5340 N.3     1  UNL1       -0.2934
     25 C         139.5998  139.6678  167.2431 C.3     1  UNL1        0.0748
     26 C         140.9147  140.3786  167.1173 C.3     1  UNL1        0.0433
     27 H         140.8417  142.5004  172.7567 H       1  UNL1        0.2922
     28 H         137.9264  140.1285  168.3207 H       1  UNL1        0.1236
@<TRIPOS>BOND
     1    16    17    1
     2    17    18   ar
     3    18    19   ar
     4    19    20   ar
     5    20    21   ar
     6    21    22   ar
     7    22    23    1
     8    23    24    1
     9    24    25    1
    10    25     1    1
    11     1     2    1
    12     2     3    1
    13     3     4    1
    14     4     5    1
    15     5     6    1
    16     6     7    1
    17     7     8    1
    18     8     9   ar
    19     9    10   ar
    20    10    11   ar
    21    11    12   ar
    22    12    13   ar
    23     5    14    1
    24    14    15    1
    25    25    26    1
    26    22    17   ar
    27    15     2    1
    28    26    21    1
    29    13     5    1
    30    13     8   ar
    31    16    27    1
    32    24    28    1
@<TRIPOS>MOLECULE
*****
 28 32 0 0 0
SMALL
GASTEIGER

@<TRIPOS>ATOM
      1 C         139.6386  144.9821  162.6321 C.3     1  UNL1        0.0883
      2 N         139.5449  143.8609  163.6242 N.3     1  UNL1       -0.2715
      3 C         140.2060  143.9883  164.9646 C.3     1  UNL1        0.0725
      4 C         140.1122  142.8671  165.9566 C.3     1  UNL1        0.0214
      5 C         139.3574  141.6185  165.6082 C.3     1  UNL1        0.0216
      6 C         138.6409  140.3168  165.4024 C.3     1  UNL1        0.0088
      7 C         138.8044  139.4959  166.6473 C.3     1  UNL1        0.0264
      8 C         139.6219  140.2903  167.6224 C.ar    1  UNL1       -0.0261
      9 C         140.0992  139.9887  169.0120 C.ar    1  UNL1       -0.0046
     10 C         140.9183  140.9987  169.7594 C.ar    1  UNL1       -0.0003
     11 C         141.2601  142.3106  169.1173 C.ar    1  UNL1       -0.0003
     12 C         140.7828  142.6123  167.7277 C.ar    1  UNL1       -0.0046
     13 C         139.9637  141.6021  166.9802 C.ar    1  UNL1       -0.0266
     14 C         138.6963  141.4912  164.2678 C.3     1  UNL1        0.0214
     15 C         138.7901  142.6124  163.2758 C.3     1  UNL1        0.0725
     16 O         143.8849  143.3037  157.4940 O.3     1  UNL1       -0.5058
     17 C         142.7011  144.2241  157.5286 C.ar    1  UNL1        0.1306
     18 C         142.2828  144.9551  156.2872 C.ar    1  UNL1        0.0363
     19 C         141.0990  145.8756  156.3219 C.ar    1  UNL1        0.0028
     20 C         140.3333  146.0651  157.5978 C.ar    1  UNL1       -0.0043
     21 C         140.7516  145.3341  158.8391 C.ar    1  UNL1       -0.0206
     22 C         141.9355  144.4136  158.8044 C.ar    1  UNL1        0.0234
     23 C         142.3537  143.6827  160.0457 C.3     1  UNL1        0.0983
     24 N         141.5881  143.8722  161.3216 N.3     1  UNL1       -0.2934
     25 C         140.4042  144.7926  161.3563 C.3     1  UNL1        0.0748
     26 C         139.9860  145.5236  160.1149 C.3     1  UNL1        0.0433
     27 H         144.3632  143.1853  156.6969 H       1  UNL1        0.2922
     28 H         142.2514  144.2194  162.0143 H       1  UNL1        0.1236
@<TRIPOS>BOND
     1    16    17    1
     2    17    18   ar
     3    18    19   ar
     4    19    20   ar
     5    20    21   ar
     6    21    22   ar
     7    22    23    1
     8    23    24    1
     9    24    25    1
    10    25     1    1
    11     1     2    1
    12     2     3    1
    13     3     4    1
    14     4     5    1
    15     5     6    1
    16     6     7    1
    17     7     8    1
    18     8     9   ar
    19     9    10   ar
    20    10    11   ar
    21    11    12   ar
    22    12    13   ar
    23     5    14    1
    24    14    15    1
    25    25    26    1
    26    22    17   ar
    27    15     2    1
    28    26    21    1
    29    13     5    1
    30    13     8   ar
    31    16    27    1
    32    24    28    1
@<TRIPOS>MOLECULE
*****
 28 32 0 0 0
SMALL
GASTEIGER

@<TRIPOS>ATOM
      1 C         142.7085  138.8473  165.6220 C.3     1  UNL1        0.0883
      2 N         141.6520  138.8869  164.5579 N.3     1  UNL1       -0.2715
      3 C         141.7741  139.8513  163.4155 C.3     1  UNL1        0.0725
      4 C         140.7176  139.8910  162.3514 C.3     1  UNL1        0.0214
      5 C         139.5391  138.9662  162.4297 C.3     1  UNL1        0.0216
      6 C         138.3107  138.1072  162.3745 C.3     1  UNL1        0.0088
      7 C         137.5379  138.4820  161.1446 C.3     1  UNL1        0.0264
      8 C         138.2888  139.5727  160.4398 C.ar    1  UNL1       -0.0261
      9 C         138.0061  140.3319  159.1775 C.ar    1  UNL1       -0.0046
     10 C         138.9601  141.3905  158.7093 C.ar    1  UNL1       -0.0003
     11 C         140.1970  141.6898  159.5036 C.ar    1  UNL1       -0.0003
     12 C         140.4796  140.9305  160.7659 C.ar    1  UNL1       -0.0046
     13 C         139.5256  139.8720  161.2340 C.ar    1  UNL1       -0.0266
     14 C         139.4171  138.0019  163.5721 C.3     1  UNL1        0.0214
     15 C         140.4736  137.9622  164.6362 C.3     1  UNL1        0.0725
     16 O         142.2394  140.8001  172.1959 O.3     1  UNL1       -0.5058
     17 C         141.7046  141.4298  170.9439 C.ar    1  UNL1        0.1306
     18 C         140.9189  142.7052  171.0224 C.ar    1  UNL1        0.0363
     19 C         140.3841  143.3348  169.7704 C.ar    1  UNL1        0.0028
     20 C         140.6351  142.6891  168.4399 C.ar    1  UNL1       -0.0043
     21 C         141.4208  141.4139  168.3614 C.ar    1  UNL1       -0.0206
     22 C         141.9556  140.7842  169.6134 C.ar    1  UNL1        0.0234
     23 C         142.7413  139.5089  169.5350 C.3     1  UNL1        0.0983
     24 N         142.9923  138.8632  168.2045 N.3     1  UNL1       -0.2934
     25 C         142.4576  139.4929  166.9525 C.3     1  UNL1        0.0748
     26 C         141.6718  140.7682  167.0310 C.3     1  UNL1        0.0433
     27 H         142.0826  141.2034  173.0270 H       1  UNL1        0.2922
     28 H         142.5973  137.9241  168.2537 H       1  UNL1        0.1236
@<TRIPOS>BOND
     1    16    17    1
     2    17    18   ar
     3    18    19   ar
     4    19    20   ar
     5    20    21   ar
     6    21    22   ar
     7    22    23    1
     8    23    24    1
     9    24    25    1
    10    25     1    1
    11     1     2    1
    12     2     3    1
    13     3     4    1
    14     4     5    1
    15     5     6    1
    16     6     7    1
    17     7     8    1
    18     8     9   ar
    19     9    10   ar
    20    10    11   ar
    21    11    12   ar
    22    12    13   ar
    23     5    14    1
    24    14    15    1
    25    25    26    1
    26    22    17   ar
    27    15     2    1
    28    26    21    1
    29    13     5    1
    30    13     8   ar
    31    16    27    1
    32    24    28    1
