@<TRIPOS>MOLECULE
*****
 25 28 0 0 0
SMALL
GASTEIGER

@<TRIPOS>ATOM
      1 C         139.5373  140.1546  167.5195 C.ar    1  UNL1       -0.0207
      2 C         140.3192  141.2508  166.8584 C.ar    1  UNL1       -0.0027
      3 C         140.6210  141.1767  165.3910 C.ar    1  UNL1        0.0188
      4 C         140.1410  140.0065  164.5847 C.ar    1  UNL1        0.0812
      5 N         140.4429  139.9324  163.1172 N.ar    1  UNL1       -0.2449
      6 C         139.9630  138.7622  162.3109 C.ar    1  UNL1        0.0872
      7 C         139.1811  137.6660  162.9721 C.ar    1  UNL1        0.0197
      8 C         138.8792  137.7400  164.4395 C.ar    1  UNL1        0.0030
      9 C         139.3592  138.9103  165.2458 C.ar    1  UNL1        0.0174
     10 C         139.0574  138.9843  166.7132 C.ar    1  UNL1       -0.0027
     11 C         140.2648  138.6881  160.8435 C.ar    1  UNL1        0.0477
     12 C         139.2636  138.7899  159.7311 C.ar    1  UNL1        0.0092
     13 C         140.0009  138.6639  158.4309 C.ar    1  UNL1        0.0174
     14 C         141.4578  138.4843  158.7397 C.ar    1  UNL1        0.0978
     15 S         141.6208  138.4993  160.2307 S.2     1  UNL1       -0.0751
     16 C         142.5583  138.3188  157.7340 C.1     1  UNL1        0.1070
     17 N         143.6589  138.1533  156.7283 N.1     1  UNL1       -0.1903
     18 C         139.2354  140.2286  168.9870 C.3     1  UNL1        0.0437
     19 C         140.3414  140.0767  169.9888 C.3     1  UNL1        0.0768
     20 C         140.0538  143.2983  170.4220 C.3     1  UNL1        0.0173
     21 C         141.3359  142.5473  170.2172 C.3     1  UNL1        0.0576
     22 C         142.7110  143.1452  170.1755 C.3     1  UNL1        0.0174
     23 C         143.6931  142.0339  169.9506 C.3     1  UNL1        0.0187
     24 C         142.9249  140.7491  169.8533 C.3     1  UNL1        0.0721
     25 N         141.4682  141.0665  170.0181 N.3     1  UNL1       -0.2737
@<TRIPOS>BOND
     1    21    20    1
     2    21    22    1
     3    22    23    1
     4    23    24    1
     5    24    25    1
     6    25    19    1
     7    19    18    1
     8    18     1    1
     9     1     2   ar
    10     2     3   ar
    11     3     4   ar
    12     4     5   ar
    13     5     6   ar
    14     6    11    1
    15    11    12   ar
    16    12    13   ar
    17    13    14   ar
    18    14    16    1
    19    16    17    3
    20    14    15   ar
    21     6     7   ar
    22     7     8   ar
    23     8     9   ar
    24     9    10   ar
    25    25    21    1
    26    10     1   ar
    27     9     4   ar
    28    15    11   ar
@<TRIPOS>MOLECULE
*****
 25 28 0 0 0
SMALL
GASTEIGER

@<TRIPOS>ATOM
      1 C         142.1193  140.0072  167.1881 C.ar    1  UNL1       -0.0207
      2 C         140.8195  139.7022  166.5044 C.ar    1  UNL1       -0.0027
      3 C         140.3933  140.5050  165.3111 C.ar    1  UNL1        0.0188
      4 C         141.2669  141.6127  164.8016 C.ar    1  UNL1        0.0812
      5 N         140.8407  142.4155  163.6082 N.ar    1  UNL1       -0.2449
      6 C         141.7143  143.5233  163.0987 C.ar    1  UNL1        0.0872
      7 C         143.0141  143.8283  163.7824 C.ar    1  UNL1        0.0197
      8 C         143.4403  143.0255  164.9757 C.ar    1  UNL1        0.0030
      9 C         142.5667  141.9178  165.4852 C.ar    1  UNL1        0.0174
     10 C         142.9929  141.1150  166.6785 C.ar    1  UNL1       -0.0027
     11 C         141.2881  144.3260  161.9054 C.ar    1  UNL1        0.0477
     12 C         140.1835  145.3404  161.8740 C.ar    1  UNL1        0.0092
     13 C         140.1043  145.8967  160.4832 C.ar    1  UNL1        0.0174
     14 C         141.1601  145.2261  159.6551 C.ar    1  UNL1        0.0978
     15 S         141.8916  144.2554  160.5340 S.2     1  UNL1       -0.0751
     16 C         141.4358  145.4814  158.2029 C.1     1  UNL1        0.1070
     17 N         141.7115  145.7367  156.7507 N.1     1  UNL1       -0.1903
     18 C         142.5456  139.2044  168.3814 C.3     1  UNL1        0.0437
     19 C         142.2141  139.6823  169.7640 C.3     1  UNL1        0.0768
     20 C         143.7957  142.5328  169.9130 C.3     1  UNL1        0.0173
     21 C         142.3127  142.3403  170.0297 C.3     1  UNL1        0.0576
     22 C         141.2964  143.4241  170.2355 C.3     1  UNL1        0.0174
     23 C         139.9412  142.7837  170.2941 C.3     1  UNL1        0.0187
     24 C         140.1200  141.3040  170.1247 C.3     1  UNL1        0.0721
     25 N         141.5857  141.0300  169.9613 N.3     1  UNL1       -0.2737
@<TRIPOS>BOND
     1    21    20    1
     2    21    22    1
     3    22    23    1
     4    23    24    1
     5    24    25    1
     6    25    19    1
     7    19    18    1
     8    18     1    1
     9     1     2   ar
    10     2     3   ar
    11     3     4   ar
    12     4     5   ar
    13     5     6   ar
    14     6    11    1
    15    11    12   ar
    16    12    13   ar
    17    13    14   ar
    18    14    16    1
    19    16    17    3
    20    14    15   ar
    21     6     7   ar
    22     7     8   ar
    23     8     9   ar
    24     9    10   ar
    25    25    21    1
    26    10     1   ar
    27     9     4   ar
    28    15    11   ar
@<TRIPOS>MOLECULE
*****
 25 28 0 0 0
SMALL
GASTEIGER

@<TRIPOS>ATOM
      1 C         139.3535  137.6316  164.5169 C.ar    1  UNL1       -0.0207
      2 C         140.8371  137.4364  164.6208 C.ar    1  UNL1       -0.0027
      3 C         141.6995  137.5787  163.4018 C.ar    1  UNL1        0.0188
      4 C         141.0783  137.9162  162.0789 C.ar    1  UNL1        0.0812
      5 N         141.9408  138.0585  160.8598 N.ar    1  UNL1       -0.2449
      6 C         141.3196  138.3960  159.5369 C.ar    1  UNL1        0.0872
      7 C         139.8359  138.5912  159.4330 C.ar    1  UNL1        0.0197
      8 C         138.9735  138.4489  160.6520 C.ar    1  UNL1        0.0030
      9 C         139.5947  138.1114  161.9749 C.ar    1  UNL1        0.0174
     10 C         138.7324  137.9691  163.1939 C.ar    1  UNL1       -0.0027
     11 C         142.1820  138.5383  158.3179 C.ar    1  UNL1        0.0477
     12 C         142.3529  137.5151  157.2344 C.ar    1  UNL1        0.0092
     13 C         143.3014  138.0732  156.2152 C.ar    1  UNL1        0.0174
     14 C         143.7167  139.4414  156.6688 C.ar    1  UNL1        0.0978
     15 S         143.0248  139.7288  157.9683 S.2     1  UNL1       -0.0751
     16 C         144.6585  140.3607  155.9491 C.1     1  UNL1        0.1070
     17 N         145.6003  141.2801  155.2295 N.1     1  UNL1       -0.1903
     18 C         138.4911  137.4893  165.7359 C.3     1  UNL1        0.0437
     19 C         138.0472  138.7093  166.4872 C.3     1  UNL1        0.0768
     20 C         138.2215  141.2994  164.5097 C.3     1  UNL1        0.0173
     21 C         139.0584  141.0658  165.7323 C.3     1  UNL1        0.0576
     22 C         140.1224  141.9817  166.2607 C.3     1  UNL1        0.0174
     23 C         140.6999  141.3571  167.4963 C.3     1  UNL1        0.0187
     24 C         139.9928  140.0553  167.7315 C.3     1  UNL1        0.0721
     25 N         138.9783  139.8753  166.6413 N.3     1  UNL1       -0.2737
@<TRIPOS>BOND
     1    21    20    1
     2    21    22    1
     3    22    23    1
     4    23    24    1
     5    24    25    1
     6    25    19    1
     7    19    18    1
     8    18     1    1
     9     1     2   ar
    10     2     3   ar
    11     3     4   ar
    12     4     5   ar
    13     5     6   ar
    14     6    11    1
    15    11    12   ar
    16    12    13   ar
    17    13    14   ar
    18    14    16    1
    19    16    17    3
    20    14    15   ar
    21     6     7   ar
    22     7     8   ar
    23     8     9   ar
    24     9    10   ar
    25    25    21    1
    26    10     1   ar
    27     9     4   ar
    28    15    11   ar
@<TRIPOS>MOLECULE
*****
 25 28 0 0 0
SMALL
GASTEIGER

@<TRIPOS>ATOM
      1 C         142.7213  138.3998  165.2171 C.ar    1  UNL1       -0.0207
      2 C         141.5523  137.5390  164.8402 C.ar    1  UNL1       -0.0027
      3 C         141.2274  137.3065  163.3944 C.ar    1  UNL1        0.0188
      4 C         142.0716  137.9349  162.3255 C.ar    1  UNL1        0.0812
      5 N         141.7467  137.7024  160.8797 N.ar    1  UNL1       -0.2449
      6 C         142.5909  138.3308  159.8108 C.ar    1  UNL1        0.0872
      7 C         143.7600  139.1917  160.1878 C.ar    1  UNL1        0.0197
      8 C         144.0849  139.4241  161.6336 C.ar    1  UNL1        0.0030
      9 C         143.2407  138.7958  162.7025 C.ar    1  UNL1        0.0174
     10 C         143.5655  139.0282  164.1483 C.ar    1  UNL1       -0.0027
     11 C         142.2660  138.0983  158.3650 C.ar    1  UNL1        0.0477
     12 C         141.4652  139.0103  157.4836 C.ar    1  UNL1        0.0092
     13 C         141.3891  138.3887  156.1206 C.ar    1  UNL1        0.0174
     14 C         142.1430  137.0924  156.1597 C.ar    1  UNL1        0.0978
     15 S         142.6849  136.9130  157.5468 S.2     1  UNL1       -0.0751
     16 C         142.3232  136.1424  155.0129 C.1     1  UNL1        0.1070
     17 N         142.5035  135.1924  153.8662 N.1     1  UNL1       -0.1903
     18 C         143.0463  138.6323  166.6630 C.3     1  UNL1        0.0437
     19 C         142.6916  139.9379  167.3108 C.3     1  UNL1        0.0768
     20 C         139.5443  140.2696  166.5147 C.3     1  UNL1        0.0173
     21 C         140.0953  140.1629  167.9057 C.3     1  UNL1        0.0576
     22 C         139.2964  140.1900  169.1750 C.3     1  UNL1        0.0174
     23 C         140.2494  140.0543  170.3255 C.3     1  UNL1        0.0187
     24 C         141.6372  139.9433  169.7671 C.3     1  UNL1        0.0721
     25 N         141.5419  140.0104  168.2717 N.3     1  UNL1       -0.2737
@<TRIPOS>BOND
     1    21    20    1
     2    21    22    1
     3    22    23    1
     4    23    24    1
     5    24    25    1
     6    25    19    1
     7    19    18    1
     8    18     1    1
     9     1     2   ar
    10     2     3   ar
    11     3     4   ar
    12     4     5   ar
    13     5     6   ar
    14     6    11    1
    15    11    12   ar
    16    12    13   ar
    17    13    14   ar
    18    14    16    1
    19    16    17    3
    20    14    15   ar
    21     6     7   ar
    22     7     8   ar
    23     8     9   ar
    24     9    10   ar
    25    25    21    1
    26    10     1   ar
    27     9     4   ar
    28    15    11   ar
@<TRIPOS>MOLECULE
*****
 25 28 0 0 0
SMALL
GASTEIGER

@<TRIPOS>ATOM
      1 C         139.3448  139.8157  167.4341 C.ar    1  UNL1       -0.0207
      2 C         138.4113  138.8060  166.8350 C.ar    1  UNL1       -0.0027
      3 C         138.5526  138.4168  165.3933 C.ar    1  UNL1        0.0188
      4 C         139.6273  139.0373  164.5507 C.ar    1  UNL1        0.0812
      5 N         139.7686  138.6481  163.1090 N.ar    1  UNL1       -0.2449
      6 C         140.8433  139.2686  162.2664 C.ar    1  UNL1        0.0872
      7 C         141.7768  140.2784  162.8657 C.ar    1  UNL1        0.0197
      8 C         141.6355  140.6676  164.3074 C.ar    1  UNL1        0.0030
      9 C         140.5608  140.0471  165.1499 C.ar    1  UNL1        0.0174
     10 C         140.4195  140.4363  166.5916 C.ar    1  UNL1       -0.0027
     11 C         140.9846  138.8794  160.8247 C.ar    1  UNL1        0.0477
     12 C         142.2555  138.4664  160.1434 C.ar    1  UNL1        0.0092
     13 C         141.9362  138.1666  158.7088 C.ar    1  UNL1        0.0174
     14 C         140.4678  138.3943  158.5035 C.ar    1  UNL1        0.0978
     15 S         139.8797  138.8348  159.8112 S.2     1  UNL1       -0.0751
     16 C         139.7190  138.2133  157.2164 C.1     1  UNL1        0.1070
     17 N         138.9702  138.0323  155.9293 N.1     1  UNL1       -0.1903
     18 C         139.2035  140.2050  168.8759 C.3     1  UNL1        0.0437
     19 C         140.3496  140.0047  169.8225 C.3     1  UNL1        0.0768
     20 C         140.0067  143.1919  170.4339 C.3     1  UNL1        0.0173
     21 C         141.2993  142.4798  170.1651 C.3     1  UNL1        0.0576
     22 C         142.6611  143.1076  170.1302 C.3     1  UNL1        0.0174
     23 C         143.6604  142.0307  169.8275 C.3     1  UNL1        0.0187
     24 C         142.9161  140.7372  169.6754 C.3     1  UNL1        0.0721
     25 N         141.4569  141.0148  169.8841 N.3     1  UNL1       -0.2737
@<TRIPOS>BOND
     1    21    20    1
     2    21    22    1
     3    22    23    1
     4    23    24    1
     5    24    25    1
     6    25    19    1
     7    19    18    1
     8    18     1    1
     9     1     2   ar
    10     2     3   ar
    11     3     4   ar
    12     4     5   ar
    13     5     6   ar
    14     6    11    1
    15    11    12   ar
    16    12    13   ar
    17    13    14   ar
    18    14    16    1
    19    16    17    3
    20    14    15   ar
    21     6     7   ar
    22     7     8   ar
    23     8     9   ar
    24     9    10   ar
    25    25    21    1
    26    10     1   ar
    27     9     4   ar
    28    15    11   ar
@<TRIPOS>MOLECULE
*****
 25 28 0 0 0
SMALL
GASTEIGER

@<TRIPOS>ATOM
      1 C         139.0130  139.5177  165.9018 C.ar    1  UNL1       -0.0207
      2 C         138.1707  140.3075  164.9444 C.ar    1  UNL1       -0.0027
      3 C         138.4532  140.2489  163.4725 C.ar    1  UNL1        0.0188
      4 C         139.5780  139.4003  162.9579 C.ar    1  UNL1        0.0812
      5 N         139.8606  139.3417  161.4859 N.ar    1  UNL1       -0.2449
      6 C         140.9854  138.4931  160.9713 C.ar    1  UNL1        0.0872
      7 C         141.8277  137.7032  161.9288 C.ar    1  UNL1        0.0197
      8 C         141.5451  137.7619  163.4007 C.ar    1  UNL1        0.0030
      9 C         140.4203  138.6104  163.9153 C.ar    1  UNL1        0.0174
     10 C         140.1378  138.6691  165.3872 C.ar    1  UNL1       -0.0027
     11 C         141.2679  138.4345  159.4993 C.ar    1  UNL1        0.0477
     12 C         140.2475  138.5050  158.4022 C.ar    1  UNL1        0.0092
     13 C         140.9694  138.4091  157.0908 C.ar    1  UNL1        0.0174
     14 C         142.4360  138.2792  157.3776 C.ar    1  UNL1        0.0978
     15 S         142.6205  138.2949  158.8661 S.2     1  UNL1       -0.0751
     16 C         143.5267  138.1554  156.3552 C.1     1  UNL1        0.1070
     17 N         144.6173  138.0316  155.3329 N.1     1  UNL1       -0.1903
     18 C         138.7305  139.5763  167.3738 C.3     1  UNL1        0.0437
     19 C         139.8413  139.8641  168.3398 C.3     1  UNL1        0.0768
     20 C         140.9424  142.5338  166.8202 C.3     1  UNL1        0.0173
     21 C         140.4809  142.4578  168.2454 C.3     1  UNL1        0.0576
     22 C         140.4445  143.5954  169.2223 C.3     1  UNL1        0.0174
     23 C         139.9158  143.0714  170.5246 C.3     1  UNL1        0.0187
     24 C         139.6255  141.6098  170.3525 C.3     1  UNL1        0.0721
     25 N         139.9748  141.2306  168.9439 N.3     1  UNL1       -0.2737
@<TRIPOS>BOND
     1    21    20    1
     2    21    22    1
     3    22    23    1
     4    23    24    1
     5    24    25    1
     6    25    19    1
     7    19    18    1
     8    18     1    1
     9     1     2   ar
    10     2     3   ar
    11     3     4   ar
    12     4     5   ar
    13     5     6   ar
    14     6    11    1
    15    11    12   ar
    16    12    13   ar
    17    13    14   ar
    18    14    16    1
    19    16    17    3
    20    14    15   ar
    21     6     7   ar
    22     7     8   ar
    23     8     9   ar
    24     9    10   ar
    25    25    21    1
    26    10     1   ar
    27     9     4   ar
    28    15    11   ar
@<TRIPOS>MOLECULE
*****
 25 28 0 0 0
SMALL
GASTEIGER

@<TRIPOS>ATOM
      1 C         140.0000  145.0968  162.8865 C.ar    1  UNL1       -0.0207
      2 C         138.7373  144.6657  163.5717 C.ar    1  UNL1       -0.0027
      3 C         138.8026  143.7476  164.7561 C.ar    1  UNL1        0.0188
      4 C         140.1306  143.2607  165.2553 C.ar    1  UNL1        0.0812
      5 N         140.1959  142.3426  166.4398 N.ar    1  UNL1       -0.2449
      6 C         141.5240  141.8557  166.9390 C.ar    1  UNL1        0.0872
      7 C         142.7867  142.2869  166.2537 C.ar    1  UNL1        0.0197
      8 C         142.7214  143.2049  165.0693 C.ar    1  UNL1        0.0030
      9 C         141.3934  143.6918  164.5701 C.ar    1  UNL1        0.0174
     10 C         141.3280  144.6099  163.3857 C.ar    1  UNL1       -0.0027
     11 C         141.5893  140.9377  168.1234 C.ar    1  UNL1        0.0477
     12 C         140.6598  140.9498  169.3006 C.ar    1  UNL1        0.0092
     13 C         141.0916  139.8659  170.2434 C.ar    1  UNL1        0.0174
     14 C         142.2880  139.1839  169.6487 C.ar    1  UNL1        0.0978
     15 S         142.5956  139.8463  168.3385 S.2     1  UNL1       -0.0751
     16 C         143.0441  138.0403  170.2574 C.1     1  UNL1        0.1070
     17 N         143.8002  136.8967  170.8661 N.1     1  UNL1       -0.1903
     18 C         139.9347  146.0149  161.7020 C.3     1  UNL1        0.0437
     19 C         140.2888  145.5042  160.3368 C.3     1  UNL1        0.0768
     20 C         138.5886  142.7198  160.4132 C.3     1  UNL1        0.0173
     21 C         140.0696  142.8431  160.2104 C.3     1  UNL1        0.0576
     22 C         141.0292  141.7083  160.0071 C.3     1  UNL1        0.0174
     23 C         142.4039  142.2868  159.8463 C.3     1  UNL1        0.0187
     24 C         142.2938  143.7792  159.9503 C.3     1  UNL1        0.0721
     25 N         140.8511  144.1229  160.1753 N.3     1  UNL1       -0.2737
@<TRIPOS>BOND
     1    21    20    1
     2    21    22    1
     3    22    23    1
     4    23    24    1
     5    24    25    1
     6    25    19    1
     7    19    18    1
     8    18     1    1
     9     1     2   ar
    10     2     3   ar
    11     3     4   ar
    12     4     5   ar
    13     5     6   ar
    14     6    11    1
    15    11    12   ar
    16    12    13   ar
    17    13    14   ar
    18    14    16    1
    19    16    17    3
    20    14    15   ar
    21     6     7   ar
    22     7     8   ar
    23     8     9   ar
    24     9    10   ar
    25    25    21    1
    26    10     1   ar
    27     9     4   ar
    28    15    11   ar
@<TRIPOS>MOLECULE
*****
 25 28 0 0 0
SMALL
GASTEIGER

@<TRIPOS>ATOM
      1 C         142.8807  138.4533  165.3135 C.ar    1  UNL1       -0.0207
      2 C         141.6278  137.6693  165.0572 C.ar    1  UNL1       -0.0027
      3 C         141.1627  137.4376  163.6501 C.ar    1  UNL1        0.0188
      4 C         141.9506  137.9898  162.4992 C.ar    1  UNL1        0.0812
      5 N         141.4855  137.7581  161.0921 N.ar    1  UNL1       -0.2449
      6 C         142.2733  138.3103  159.9413 C.ar    1  UNL1        0.0872
      7 C         143.5262  139.0942  160.1976 C.ar    1  UNL1        0.0197
      8 C         143.9913  139.3259  161.6047 C.ar    1  UNL1        0.0030
      9 C         143.2034  138.7737  162.7555 C.ar    1  UNL1        0.0174
     10 C         143.6685  139.0055  164.1626 C.ar    1  UNL1       -0.0027
     11 C         141.8082  138.0785  158.5341 C.ar    1  UNL1        0.0477
     12 C         142.6874  137.8267  157.3451 C.ar    1  UNL1        0.0092
     13 C         141.8049  137.6505  156.1451 C.ar    1  UNL1        0.0174
     14 C         140.3803  137.7934  156.5925 C.ar    1  UNL1        0.0978
     15 S         140.3824  138.0579  158.0690 S.2     1  UNL1       -0.0751
     16 C         139.1666  137.6899  155.7170 C.1     1  UNL1        0.1070
     17 N         137.9530  137.5864  154.8415 N.1     1  UNL1       -0.1903
     18 C         143.3458  138.6850  166.7206 C.3     1  UNL1        0.0437
     19 C         142.6397  139.6837  167.5890 C.3     1  UNL1        0.0768
     20 C         139.3829  139.7661  167.3999 C.3     1  UNL1        0.0173
     21 C         140.3231  140.8116  166.8776 C.3     1  UNL1        0.0576
     22 C         139.9314  142.0786  166.1767 C.3     1  UNL1        0.0174
     23 C         141.1863  142.8239  165.8304 C.3     1  UNL1        0.0187
     24 C         142.3537  142.0173  166.3173 C.3     1  UNL1        0.0721
     25 N         141.8201  140.7738  166.9645 N.3     1  UNL1       -0.2737
@<TRIPOS>BOND
     1    21    20    1
     2    21    22    1
     3    22    23    1
     4    23    24    1
     5    24    25    1
     6    25    19    1
     7    19    18    1
     8    18     1    1
     9     1     2   ar
    10     2     3   ar
    11     3     4   ar
    12     4     5   ar
    13     5     6   ar
    14     6    11    1
    15    11    12   ar
    16    12    13   ar
    17    13    14   ar
    18    14    16    1
    19    16    17    3
    20    14    15   ar
    21     6     7   ar
    22     7     8   ar
    23     8     9   ar
    24     9    10   ar
    25    25    21    1
    26    10     1   ar
    27     9     4   ar
    28    15    11   ar
@<TRIPOS>MOLECULE
*****
 25 28 0 0 0
SMALL
GASTEIGER

@<TRIPOS>ATOM
      1 C         138.6461  139.6492  165.6960 C.ar    1  UNL1       -0.0207
      2 C         139.0085  138.5039  164.7978 C.ar    1  UNL1       -0.0027
      3 C         139.0353  138.6965  163.3105 C.ar    1  UNL1        0.0188
      4 C         138.6996  140.0345  162.7214 C.ar    1  UNL1        0.0812
      5 N         138.7264  140.2271  161.2340 N.ar    1  UNL1       -0.2449
      6 C         138.3908  141.5652  160.6449 C.ar    1  UNL1        0.0872
      7 C         138.0284  142.7106  161.5431 C.ar    1  UNL1        0.0197
      8 C         138.0016  142.5179  163.0304 C.ar    1  UNL1        0.0030
      9 C         138.3373  141.1799  163.6196 C.ar    1  UNL1        0.0174
     10 C         138.3105  140.9873  165.1069 C.ar    1  UNL1       -0.0027
     11 C         138.4175  141.7578  159.1576 C.ar    1  UNL1        0.0477
     12 C         138.9671  142.9505  158.4327 C.ar    1  UNL1        0.0092
     13 C         138.7886  142.7214  156.9611 C.ar    1  UNL1        0.0174
     14 C         138.1287  141.3871  156.7765 C.ar    1  UNL1        0.0978
     15 S         137.8994  140.7915  158.1339 S.2     1  UNL1       -0.0751
     16 C         137.7625  140.7586  155.4646 C.1     1  UNL1        0.1070
     17 N         137.3962  140.1301  154.1528 N.1     1  UNL1       -0.1903
     18 C         138.6194  139.4566  167.1834 C.3     1  UNL1        0.0437
     19 C         139.8388  139.7631  168.0014 C.3     1  UNL1        0.0768
     20 C         141.0934  142.5236  166.7954 C.3     1  UNL1        0.0173
     21 C         140.5235  142.3414  168.1708 C.3     1  UNL1        0.0576
     22 C         140.4302  143.3960  169.2334 C.3     1  UNL1        0.0174
     23 C         139.7958  142.7789  170.4446 C.3     1  UNL1        0.0187
     24 C         139.4971  141.3428  170.1304 C.3     1  UNL1        0.0721
     25 N         139.9468  141.0725  168.7252 N.3     1  UNL1       -0.2737
@<TRIPOS>BOND
     1    21    20    1
     2    21    22    1
     3    22    23    1
     4    23    24    1
     5    24    25    1
     6    25    19    1
     7    19    18    1
     8    18     1    1
     9     1     2   ar
    10     2     3   ar
    11     3     4   ar
    12     4     5   ar
    13     5     6   ar
    14     6    11    1
    15    11    12   ar
    16    12    13   ar
    17    13    14   ar
    18    14    16    1
    19    16    17    3
    20    14    15   ar
    21     6     7   ar
    22     7     8   ar
    23     8     9   ar
    24     9    10   ar
    25    25    21    1
    26    10     1   ar
    27     9     4   ar
    28    15    11   ar
