@<TRIPOS>MOLECULE
*****
 44 50 0 0 0
SMALL
GASTEIGER

@<TRIPOS>ATOM
      1 C         137.8424  143.0344  162.8248 C.3     1  UNL1        0.0932
      2 C         137.5567  141.8218  163.6602 C.3     1  UNL1        0.0286
      3 C         137.6215  140.4551  163.0453 C.3     1  UNL1        0.0193
      4 C         137.9719  140.3011  161.5950 C.3     1  UNL1        0.0700
      5 C         138.2576  141.5137  160.7595 C.3     1  UNL1        0.0193
      6 C         138.1929  142.8803  161.3744 C.3     1  UNL1        0.0286
      7 C         137.9488  141.0704  161.8875 C.3     1  UNL1        0.1562
      8 O         137.8903  142.3062  162.4435 O.3     1  UNL1       -0.3572
      9 N         138.0366  138.9345  160.9801 N.3     1  UNL1       -0.2926
     10 H         137.5280  138.9843  160.0974 H       1  UNL1        0.1236
     11 C         139.3667  138.3099  160.6787 C.3     1  UNL1        0.1152
     12 C         140.4883  138.4195  161.6687 C.ar    1  UNL1        0.0765
     13 C         140.5038  137.5416  162.8848 C.ar    1  UNL1        0.0193
     14 C         141.6253  137.6511  163.8747 C.ar    1  UNL1        0.0411
     15 C         142.7315  138.6387  163.6486 C.ar    1  UNL1        0.1708
     16 C         142.7160  139.5167  162.4325 C.ar    1  UNL1        0.1682
     17 N         141.5945  139.4071  161.4425 N.ar    1  UNL1       -0.2304
     18 N         143.8222  140.5043  162.2064 N.am    1  UNL1       -0.2639
     19 C         144.9438  140.6138  163.1963 C.2     1  UNL1        0.2718
     20 O         146.0500  141.6014  162.9702 O.2     1  UNL1       -0.2707
     21 C         144.9592  139.7359  164.4124 C.3     1  UNL1        0.2898
     22 O         143.8531  138.7483  164.6386 O.3     1  UNL1       -0.4628
     23 H         143.8121  141.0805  161.4082 H       1  UNL1        0.1565
     24 C         137.7777  144.4011  163.4397 C.3     1  UNL1        0.0320
     25 C         138.8704  144.8630  164.3576 C.3     1  UNL1        0.0327
     26 C         140.7924  142.1424  167.3832 C.ar    1  UNL1        0.2249
     27 C         142.1988  141.6641  167.1752 C.ar    1  UNL1        0.0593
     28 C         142.9645  142.0927  165.9587 C.ar    1  UNL1        0.0254
     29 C         142.3239  142.9996  164.9502 C.ar    1  UNL1        0.0990
     30 N         143.0897  143.4282  163.7336 N.ar    1  UNL1       -0.2400
     31 C         142.4490  144.3351  162.7251 C.ar    1  UNL1        0.1281
     32 C         141.0426  144.8134  162.9331 C.ar    1  UNL1        0.1566
     33 F         140.4019  145.7203  161.9246 F       1  UNL1       -0.2028
     34 C         140.2768  144.3848  164.1496 C.ar    1  UNL1        0.0261
     35 C         140.9175  143.4779  165.1581 C.ar    1  UNL1        0.1002
     36 N         140.1518  143.0492  166.3746 N.ar    1  UNL1       -0.2104
     37 O         140.0266  141.7137  168.5997 O.3     1  UNL1       -0.4602
     38 C         139.6031  140.2831  168.7538 C.3     1  UNL1        0.2084
     39 N         136.8087  137.5936  167.4300 N.3     1  UNL1       -0.3221
     40 C         137.8862  138.5961  167.1402 C.3     1  UNL1        0.0546
     41 C         138.7297  139.3481  166.1538 C.3     1  UNL1        0.0206
     42 C         138.9090  139.5805  167.6248 C.3     1  UNL1        0.0593
     43 H         136.4495  137.2174  166.5526 H       1  UNL1        0.1188
     44 H         136.0512  138.0468  167.9410 H       1  UNL1        0.1188
@<TRIPOS>BOND
     1    39    40    1
     2    40    41    1
     3    41    42    1
     4    42    38    1
     5    38    37    1
     6    37    26    1
     7    26    27   ar
     8    27    28   ar
     9    28    29   ar
    10    29    30   ar
    11    30    31   ar
    12    31    32   ar
    13    32    33    1
    14    32    34   ar
    15    34    25    1
    16    25    24    1
    17    24     1    1
    18     1     2    1
    19     2     3    1
    20     3     4    1
    21     4     9    1
    22     9    11    1
    23    11    12    1
    24    12    13   ar
    25    13    14   ar
    26    14    15   ar
    27    15    16   ar
    28    16    17   ar
    29    16    18    1
    30    18    19   am
    31    19    20    2
    32    19    21    1
    33    21    22    1
    34     4     5    1
    35     5     6    1
    36     4     7    1
    37     7     8    1
    38    34    35   ar
    39    35    36   ar
    40    42    40    1
    41    36    26   ar
    42    35    29   ar
    43     6     1    1
    44     8     1    1
    45    17    12   ar
    46    22    15    1
    47    39    43    1
    48    39    44    1
    49     9    10    1
    50    18    23    1
@<TRIPOS>MOLECULE
*****
 44 50 0 0 0
SMALL
GASTEIGER

@<TRIPOS>ATOM
      1 C         141.9623  138.0885  163.9151 C.3     1  UNL1        0.0932
      2 C         142.8340  138.5986  165.0241 C.3     1  UNL1        0.0286
      3 C         144.0420  139.4294  164.7069 C.3     1  UNL1        0.0193
      4 C         144.3783  139.7501  163.2807 C.3     1  UNL1        0.0700
      5 C         143.5065  139.2399  162.1716 C.3     1  UNL1        0.0193
      6 C         142.2986  138.4092  162.4888 C.3     1  UNL1        0.0286
      7 C         143.7060  139.2912  163.4052 C.3     1  UNL1        0.1562
      8 O         142.6137  138.5400  163.6920 O.3     1  UNL1       -0.3572
      9 N         145.5862  140.5808  162.9635 N.3     1  UNL1       -0.2926
     10 H         145.6790  140.5898  161.9477 H       1  UNL1        0.1236
     11 C         145.6544  142.0089  163.4171 C.3     1  UNL1        0.1152
     12 C         144.4613  142.9042  163.2583 C.ar    1  UNL1        0.0765
     13 C         143.8445  143.5523  164.4622 C.ar    1  UNL1        0.0193
     14 C         142.6514  144.4475  164.3035 C.ar    1  UNL1        0.0411
     15 C         142.0752  144.6945  162.9409 C.ar    1  UNL1        0.1708
     16 C         142.6920  144.0464  161.7369 C.ar    1  UNL1        0.1682
     17 N         143.8851  143.1512  161.8957 N.ar    1  UNL1       -0.2304
     18 N         142.1157  144.2935  160.3742 N.am    1  UNL1       -0.2639
     19 C         140.9227  145.1886  160.2155 C.2     1  UNL1        0.2718
     20 O         140.3464  145.4357  158.8528 O.2     1  UNL1       -0.2707
     21 C         140.3059  145.8368  161.4194 C.3     1  UNL1        0.2898
     22 O         140.8821  145.5897  162.7821 O.3     1  UNL1       -0.4628
     23 H         142.5206  143.8681  159.5840 H       1  UNL1        0.1565
     24 C         140.7543  137.2577  164.2322 C.3     1  UNL1        0.0320
     25 C         139.4877  137.9194  164.6882 C.3     1  UNL1        0.0327
     26 C         140.1180  142.0921  166.2506 C.ar    1  UNL1        0.2249
     27 C         139.5712  143.2666  165.4946 C.ar    1  UNL1        0.0593
     28 C         138.8143  143.0501  164.2179 C.ar    1  UNL1        0.0254
     29 C         138.6042  141.6592  163.6970 C.ar    1  UNL1        0.0990
     30 N         137.8472  141.4428  162.4202 N.ar    1  UNL1       -0.2400
     31 C         137.6371  140.0519  161.8994 C.ar    1  UNL1        0.1281
     32 C         138.1840  138.8774  162.6554 C.ar    1  UNL1        0.1566
     33 F         137.9739  137.4865  162.1346 F       1  UNL1       -0.2028
     34 C         138.9409  139.0938  163.9322 C.ar    1  UNL1        0.0261
     35 C         139.1510  140.4847  164.4530 C.ar    1  UNL1        0.1002
     36 N         139.9079  140.7012  165.7298 N.ar    1  UNL1       -0.2104
     37 O         140.8749  142.3085  167.5275 O.3     1  UNL1       -0.4602
     38 C         142.3534  142.0599  167.5742 C.3     1  UNL1        0.2084
     39 N         143.2324  139.8485  170.9106 N.3     1  UNL1       -0.3221
     40 C         143.3713  141.1138  170.1171 C.3     1  UNL1        0.0546
     41 C         143.9336  142.4959  169.9638 C.3     1  UNL1        0.0206
     42 C         143.0496  141.9232  168.8959 C.3     1  UNL1        0.0593
     43 H         143.7677  139.9289  171.7751 H       1  UNL1        0.1188
     44 H         143.5860  139.0635  170.3636 H       1  UNL1        0.1188
@<TRIPOS>BOND
     1    39    40    1
     2    40    41    1
     3    41    42    1
     4    42    38    1
     5    38    37    1
     6    37    26    1
     7    26    27   ar
     8    27    28   ar
     9    28    29   ar
    10    29    30   ar
    11    30    31   ar
    12    31    32   ar
    13    32    33    1
    14    32    34   ar
    15    34    25    1
    16    25    24    1
    17    24     1    1
    18     1     2    1
    19     2     3    1
    20     3     4    1
    21     4     9    1
    22     9    11    1
    23    11    12    1
    24    12    13   ar
    25    13    14   ar
    26    14    15   ar
    27    15    16   ar
    28    16    17   ar
    29    16    18    1
    30    18    19   am
    31    19    20    2
    32    19    21    1
    33    21    22    1
    34     4     5    1
    35     5     6    1
    36     4     7    1
    37     7     8    1
    38    34    35   ar
    39    35    36   ar
    40    42    40    1
    41    36    26   ar
    42    35    29   ar
    43     6     1    1
    44     8     1    1
    45    17    12   ar
    46    22    15    1
    47    39    43    1
    48    39    44    1
    49     9    10    1
    50    18    23    1
@<TRIPOS>MOLECULE
*****
 44 50 0 0 0
SMALL
GASTEIGER

@<TRIPOS>ATOM
      1 C         137.8867  142.8193  163.1767 C.3     1  UNL1        0.0932
      2 C         137.6459  141.4936  163.8357 C.3     1  UNL1        0.0286
      3 C         137.7159  140.2311  163.0287 C.3     1  UNL1        0.0193
      4 C         138.0267  140.2944  161.5626 C.3     1  UNL1        0.0700
      5 C         138.2675  141.6202  160.9035 C.3     1  UNL1        0.0193
      6 C         138.1975  142.8827  161.7106 C.3     1  UNL1        0.0286
      7 C         137.9991  141.0131  161.9635 C.3     1  UNL1        0.1562
      8 O         137.9358  142.1546  162.6932 O.3     1  UNL1       -0.3572
      9 N         138.0967  139.0320  160.7556 N.3     1  UNL1       -0.2926
     10 H         137.6392  139.2262  159.8648 H       1  UNL1        0.1236
     11 C         139.4280  138.4201  160.4343 C.3     1  UNL1        0.1152
     12 C         140.5458  138.4894  161.4322 C.ar    1  UNL1        0.0765
     13 C         140.5696  137.5462  162.5983 C.ar    1  UNL1        0.0193
     14 C         141.6873  137.6154  163.5962 C.ar    1  UNL1        0.0411
     15 C         142.7812  138.6279  163.4281 C.ar    1  UNL1        0.1708
     16 C         142.7573  139.5712  162.2621 C.ar    1  UNL1        0.1682
     17 N         141.6396  139.5019  161.2641 N.ar    1  UNL1       -0.2304
     18 N         143.8512  140.5837  162.0940 N.am    1  UNL1       -0.2639
     19 C         144.9689  140.6530  163.0919 C.2     1  UNL1        0.2718
     20 O         146.0628  141.6655  162.9238 O.2     1  UNL1       -0.2707
     21 C         144.9928  139.7097  164.2580 C.3     1  UNL1        0.2898
     22 O         143.8989  138.6972  164.4261 O.3     1  UNL1       -0.4628
     23 H         143.8356  141.2028  161.3287 H       1  UNL1        0.1565
     24 C         137.8167  144.0819  163.9837 C.3     1  UNL1        0.0320
     25 C         138.7603  144.2921  165.1306 C.3     1  UNL1        0.0327
     26 C         140.4580  140.7791  167.3727 C.ar    1  UNL1        0.2249
     27 C         141.9081  140.4252  167.2254 C.ar    1  UNL1        0.0593
     28 C         142.7924  141.2423  166.3307 C.ar    1  UNL1        0.0254
     29 C         142.2265  142.4133  165.5834 C.ar    1  UNL1        0.0990
     30 N         143.1108  143.2304  164.6887 N.ar    1  UNL1       -0.2400
     31 C         142.5450  144.4013  163.9413 C.ar    1  UNL1        0.1281
     32 C         141.0947  144.7553  164.0887 C.ar    1  UNL1        0.1566
     33 F         140.5288  145.9262  163.3413 F       1  UNL1       -0.2028
     34 C         140.2105  143.9382  164.9833 C.ar    1  UNL1        0.0261
     35 C         140.7764  142.7672  165.7307 C.ar    1  UNL1        0.1002
     36 N         139.8921  141.9501  166.6253 N.ar    1  UNL1       -0.2104
     37 O         139.5737  139.9620  168.2674 O.3     1  UNL1       -0.4602
     38 C         139.1436  140.5067  169.5972 C.3     1  UNL1        0.2084
     39 N         142.1404  142.0666  171.9167 N.3     1  UNL1       -0.3221
     40 C         140.9444  142.2650  171.0335 C.3     1  UNL1        0.0546
     41 C         139.9697  143.1795  170.3527 C.3     1  UNL1        0.0206
     42 C         139.8475  141.6940  170.1845 C.3     1  UNL1        0.0593
     43 H         142.4899  142.9740  172.2248 H       1  UNL1        0.1188
     44 H         142.8704  141.5799  171.3964 H       1  UNL1        0.1188
@<TRIPOS>BOND
     1    39    40    1
     2    40    41    1
     3    41    42    1
     4    42    38    1
     5    38    37    1
     6    37    26    1
     7    26    27   ar
     8    27    28   ar
     9    28    29   ar
    10    29    30   ar
    11    30    31   ar
    12    31    32   ar
    13    32    33    1
    14    32    34   ar
    15    34    25    1
    16    25    24    1
    17    24     1    1
    18     1     2    1
    19     2     3    1
    20     3     4    1
    21     4     9    1
    22     9    11    1
    23    11    12    1
    24    12    13   ar
    25    13    14   ar
    26    14    15   ar
    27    15    16   ar
    28    16    17   ar
    29    16    18    1
    30    18    19   am
    31    19    20    2
    32    19    21    1
    33    21    22    1
    34     4     5    1
    35     5     6    1
    36     4     7    1
    37     7     8    1
    38    34    35   ar
    39    35    36   ar
    40    42    40    1
    41    36    26   ar
    42    35    29   ar
    43     6     1    1
    44     8     1    1
    45    17    12   ar
    46    22    15    1
    47    39    43    1
    48    39    44    1
    49     9    10    1
    50    18    23    1
@<TRIPOS>MOLECULE
*****
 44 50 0 0 0
SMALL
GASTEIGER

@<TRIPOS>ATOM
      1 C         137.8856  142.6599  163.8410 C.3     1  UNL1        0.0932
      2 C         137.7351  142.5201  162.3552 C.3     1  UNL1        0.0286
      3 C         137.7617  141.1599  161.7233 C.3     1  UNL1        0.0193
      4 C         137.9389  139.9396  162.5773 C.3     1  UNL1        0.0700
      5 C         138.0894  140.0794  164.0632 C.3     1  UNL1        0.0193
      6 C         138.0627  141.4396  164.6951 C.3     1  UNL1        0.0286
      7 C         137.9306  140.6638  162.9690 C.3     1  UNL1        0.1562
      8 O         137.9065  141.8937  163.5403 O.3     1  UNL1       -0.3572
      9 N         137.9655  138.5794  161.9455 N.3     1  UNL1       -0.2926
     10 H         137.2183  138.5625  161.2513 H       1  UNL1        0.1236
     11 C         139.2074  138.0966  161.2567 C.3     1  UNL1        0.1152
     12 C         140.5530  138.3598  161.8652 C.ar    1  UNL1        0.0765
     13 C         141.6640  138.9085  161.0199 C.ar    1  UNL1        0.0193
     14 C         143.0096  139.1717  161.6284 C.ar    1  UNL1        0.0411
     15 C         143.2441  138.8860  163.0821 C.ar    1  UNL1        0.1708
     16 C         142.1331  138.3373  163.9274 C.ar    1  UNL1        0.1682
     17 N         140.7876  138.0742  163.3190 N.ar    1  UNL1       -0.2304
     18 N         142.3677  138.0517  165.3812 N.am    1  UNL1       -0.2639
     19 C         143.7133  138.3148  165.9896 C.2     1  UNL1        0.2718
     20 O         143.9479  138.0292  167.4434 O.2     1  UNL1       -0.2707
     21 C         144.8243  138.8635  165.1443 C.3     1  UNL1        0.2898
     22 O         144.5897  139.1492  163.6906 O.3     1  UNL1       -0.4628
     23 H         141.6385  137.6915  165.9360 H       1  UNL1        0.1565
     24 C         137.8590  144.0201  164.4729 C.3     1  UNL1        0.0320
     25 C         139.1444  144.7265  164.7870 C.3     1  UNL1        0.0327
     26 C         142.7898  142.3746  165.9828 C.ar    1  UNL1        0.2249
     27 C         143.9540  142.2664  165.0432 C.ar    1  UNL1        0.0593
     28 C         143.9031  142.9421  163.7051 C.ar    1  UNL1        0.0254
     29 C         142.6880  143.7260  163.3065 C.ar    1  UNL1        0.0990
     30 N         142.6371  144.4018  161.9682 N.ar    1  UNL1       -0.2400
     31 C         141.4220  145.1857  161.5696 C.ar    1  UNL1        0.1281
     32 C         140.2577  145.2939  162.5093 C.ar    1  UNL1        0.1566
     33 F         139.0426  146.0779  162.1107 F       1  UNL1       -0.2028
     34 C         140.3087  144.6182  163.8474 C.ar    1  UNL1        0.0261
     35 C         141.5238  143.8343  164.2460 C.ar    1  UNL1        0.1002
     36 N         141.5747  143.1586  165.5842 N.ar    1  UNL1       -0.2104
     37 O         142.8407  141.6989  167.3211 O.3     1  UNL1       -0.4602
     38 C         141.8124  142.0223  168.3641 C.3     1  UNL1        0.2084
     39 N         139.8878  139.6645  171.1084 N.3     1  UNL1       -0.3221
     40 C         140.0379  140.1621  169.7014 C.3     1  UNL1        0.0546
     41 C         139.5934  140.1611  168.2688 C.3     1  UNL1        0.0206
     42 C         140.7423  141.0251  168.6969 C.3     1  UNL1        0.0593
     43 H         139.1172  138.9977  171.1529 H       1  UNL1        0.1188
     44 H         139.6933  140.4508  171.7283 H       1  UNL1        0.1188
@<TRIPOS>BOND
     1    39    40    1
     2    40    41    1
     3    41    42    1
     4    42    38    1
     5    38    37    1
     6    37    26    1
     7    26    27   ar
     8    27    28   ar
     9    28    29   ar
    10    29    30   ar
    11    30    31   ar
    12    31    32   ar
    13    32    33    1
    14    32    34   ar
    15    34    25    1
    16    25    24    1
    17    24     1    1
    18     1     2    1
    19     2     3    1
    20     3     4    1
    21     4     9    1
    22     9    11    1
    23    11    12    1
    24    12    13   ar
    25    13    14   ar
    26    14    15   ar
    27    15    16   ar
    28    16    17   ar
    29    16    18    1
    30    18    19   am
    31    19    20    2
    32    19    21    1
    33    21    22    1
    34     4     5    1
    35     5     6    1
    36     4     7    1
    37     7     8    1
    38    34    35   ar
    39    35    36   ar
    40    42    40    1
    41    36    26   ar
    42    35    29   ar
    43     6     1    1
    44     8     1    1
    45    17    12   ar
    46    22    15    1
    47    39    43    1
    48    39    44    1
    49     9    10    1
    50    18    23    1
@<TRIPOS>MOLECULE
*****
 44 50 0 0 0
SMALL
GASTEIGER

@<TRIPOS>ATOM
      1 C         140.8089  138.0894  161.9052 C.3     1  UNL1        0.0932
      2 C         139.3219  138.2805  161.9514 C.3     1  UNL1        0.0286
      3 C         138.5641  137.9669  163.2074 C.3     1  UNL1        0.0193
      4 C         139.2934  137.4622  164.4171 C.3     1  UNL1        0.0700
      5 C         140.7805  137.2711  164.3709 C.3     1  UNL1        0.0193
      6 C         141.5382  137.5847  163.1149 C.3     1  UNL1        0.0286
      7 C         139.7516  137.6205  163.7516 C.3     1  UNL1        0.1562
      8 O         140.4368  137.9041  162.6159 O.3     1  UNL1       -0.3572
      9 N         138.5357  137.1487  165.6731 N.3     1  UNL1       -0.2926
     10 H         139.1979  136.7142  166.3158 H       1  UNL1        0.1236
     11 C         137.8538  138.2483  166.4319 C.3     1  UNL1        0.1152
     12 C         138.6540  139.3996  166.9652 C.ar    1  UNL1        0.0765
     13 C         139.3133  140.3575  166.0177 C.ar    1  UNL1        0.0193
     14 C         140.1134  141.5087  166.5510 C.ar    1  UNL1        0.0411
     15 C         140.2542  141.7020  168.0317 C.ar    1  UNL1        0.1708
     16 C         139.5949  140.7442  168.9792 C.ar    1  UNL1        0.1682
     17 N         138.7948  139.5929  168.4460 N.ar    1  UNL1       -0.2304
     18 N         139.7358  140.9376  170.4601 N.am    1  UNL1       -0.2639
     19 C         140.5360  142.0888  170.9933 C.2     1  UNL1        0.2718
     20 O         140.6768  142.2822  172.4742 O.2     1  UNL1       -0.2707
     21 C         141.1953  143.0467  170.0458 C.3     1  UNL1        0.2898
     22 O         141.0544  142.8533  168.5651 O.3     1  UNL1       -0.4628
     23 H         139.3031  140.3089  171.0820 H       1  UNL1        0.1565
     24 C         141.5667  138.4029  160.6492 C.3     1  UNL1        0.0320
     25 C         142.1536  139.7687  160.4485 C.3     1  UNL1        0.0327
     26 C         141.0214  143.8053  162.0837 C.ar    1  UNL1        0.2249
     27 C         141.8462  144.4337  163.1675 C.ar    1  UNL1        0.0593
     28 C         143.0485  143.7167  163.7062 C.ar    1  UNL1        0.0254
     29 C         143.4259  142.3711  163.1611 C.ar    1  UNL1        0.0990
     30 N         144.6283  141.6541  163.6999 N.ar    1  UNL1       -0.2400
     31 C         145.0057  140.3085  163.1548 C.ar    1  UNL1        0.1281
     32 C         144.1808  139.6801  162.0710 C.ar    1  UNL1        0.1566
     33 F         144.5582  138.3345  161.5259 F       1  UNL1       -0.2028
     34 C         142.9785  140.3971  161.5323 C.ar    1  UNL1        0.0261
     35 C         142.6011  141.7427  162.0773 C.ar    1  UNL1        0.1002
     36 N         141.3988  142.4598  161.5386 N.ar    1  UNL1       -0.2104
     37 O         139.8190  144.5224  161.5449 O.3     1  UNL1       -0.4602
     38 C         138.7351  144.9748  162.4779 C.3     1  UNL1        0.2084
     39 N         136.8832  141.3694  163.0827 N.3     1  UNL1       -0.3221
     40 C         137.4014  142.6700  163.6209 C.3     1  UNL1        0.0546
     41 C         137.6212  143.6032  164.7746 C.3     1  UNL1        0.0206
     42 C         138.0793  143.9897  163.3996 C.3     1  UNL1        0.0593
     43 H         136.4720  140.8268  163.8422 H       1  UNL1        0.1188
     44 H         137.6516  140.8435  162.6663 H       1  UNL1        0.1188
@<TRIPOS>BOND
     1    39    40    1
     2    40    41    1
     3    41    42    1
     4    42    38    1
     5    38    37    1
     6    37    26    1
     7    26    27   ar
     8    27    28   ar
     9    28    29   ar
    10    29    30   ar
    11    30    31   ar
    12    31    32   ar
    13    32    33    1
    14    32    34   ar
    15    34    25    1
    16    25    24    1
    17    24     1    1
    18     1     2    1
    19     2     3    1
    20     3     4    1
    21     4     9    1
    22     9    11    1
    23    11    12    1
    24    12    13   ar
    25    13    14   ar
    26    14    15   ar
    27    15    16   ar
    28    16    17   ar
    29    16    18    1
    30    18    19   am
    31    19    20    2
    32    19    21    1
    33    21    22    1
    34     4     5    1
    35     5     6    1
    36     4     7    1
    37     7     8    1
    38    34    35   ar
    39    35    36   ar
    40    42    40    1
    41    36    26   ar
    42    35    29   ar
    43     6     1    1
    44     8     1    1
    45    17    12   ar
    46    22    15    1
    47    39    43    1
    48    39    44    1
    49     9    10    1
    50    18    23    1
@<TRIPOS>MOLECULE
*****
 44 50 0 0 0
SMALL
GASTEIGER

@<TRIPOS>ATOM
      1 C         138.9438  143.1787  162.9166 C.3     1  UNL1        0.0932
      2 C         139.5678  143.4351  164.2563 C.3     1  UNL1        0.0286
      3 C         140.8481  144.2110  164.3513 C.3     1  UNL1        0.0193
      4 C         141.5043  144.7305  163.1065 C.3     1  UNL1        0.0700
      5 C         140.8803  144.4740  161.7667 C.3     1  UNL1        0.0193
      6 C         139.6000  143.6982  161.6718 C.3     1  UNL1        0.0286
      7 C         140.8035  144.3105  163.0042 C.3     1  UNL1        0.1562
      8 O         139.6459  143.6089  162.9184 O.3     1  UNL1       -0.3572
      9 N         142.7845  145.5063  163.2014 N.3     1  UNL1       -0.2926
     10 H         142.7406  146.0421  164.0682 H       1  UNL1        0.1236
     11 C         144.0999  144.7854  163.2041 C.3     1  UNL1        0.1152
     12 C         144.1361  143.2904  163.0867 C.ar    1  UNL1        0.0765
     13 C         144.4583  142.4514  164.2876 C.ar    1  UNL1        0.0193
     14 C         144.4946  140.9565  164.1703 C.ar    1  UNL1        0.0411
     15 C         144.2085  140.3006  162.8520 C.ar    1  UNL1        0.1708
     16 C         143.8863  141.1396  161.6511 C.ar    1  UNL1        0.1682
     17 N         143.8501  142.6345  161.7684 N.ar    1  UNL1       -0.2304
     18 N         143.6002  140.4835  160.3328 N.am    1  UNL1       -0.2639
     19 C         143.6364  138.9886  160.2154 C.2     1  UNL1        0.2718
     20 O         143.3504  138.3326  158.8971 O.2     1  UNL1       -0.2707
     21 C         143.9587  138.1496  161.4164 C.3     1  UNL1        0.2898
     22 O         144.2447  138.8055  162.7346 O.3     1  UNL1       -0.4628
     23 H         143.3887  141.0342  159.5445 H       1  UNL1        0.1565
     24 C         137.6635  142.4028  162.8217 C.3     1  UNL1        0.0320
     25 C         137.5562  141.0515  163.4639 C.3     1  UNL1        0.0327
     26 C         140.9231  139.4343  165.9736 C.ar    1  UNL1        0.2249
     27 C         141.7561  138.2947  165.4666 C.ar    1  UNL1        0.0593
     28 C         141.4668  137.6940  164.1229 C.ar    1  UNL1        0.0254
     29 C         140.3445  138.2331  163.2863 C.ar    1  UNL1        0.0990
     30 N         140.0552  137.6324  161.9426 N.ar    1  UNL1       -0.2400
     31 C         138.9329  138.1714  161.1060 C.ar    1  UNL1        0.1281
     32 C         138.0999  139.3112  161.6131 C.ar    1  UNL1        0.1566
     33 F         136.9776  139.8502  160.7765 F       1  UNL1       -0.2028
     34 C         138.3892  139.9118  162.9568 C.ar    1  UNL1        0.0261
     35 C         139.5115  139.3728  163.7934 C.ar    1  UNL1        0.1002
     36 N         139.8008  139.9734  165.1370 N.ar    1  UNL1       -0.2104
     37 O         141.2123  140.0351  167.3174 O.3     1  UNL1       -0.4602
     38 C         142.6000  140.4980  167.6489 C.3     1  UNL1        0.2084
     39 N         142.2250  140.6325  171.7276 N.3     1  UNL1       -0.3221
     40 C         142.7330  141.2308  170.4494 C.3     1  UNL1        0.0546
     41 C         143.4756  142.3164  169.7284 C.3     1  UNL1        0.0206
     42 C         142.8702  141.1816  168.9565 C.3     1  UNL1        0.0593
     43 H         142.4979  141.2244  172.5122 H       1  UNL1        0.1188
     44 H         142.6236  139.7015  171.8492 H       1  UNL1        0.1188
@<TRIPOS>BOND
     1    39    40    1
     2    40    41    1
     3    41    42    1
     4    42    38    1
     5    38    37    1
     6    37    26    1
     7    26    27   ar
     8    27    28   ar
     9    28    29   ar
    10    29    30   ar
    11    30    31   ar
    12    31    32   ar
    13    32    33    1
    14    32    34   ar
    15    34    25    1
    16    25    24    1
    17    24     1    1
    18     1     2    1
    19     2     3    1
    20     3     4    1
    21     4     9    1
    22     9    11    1
    23    11    12    1
    24    12    13   ar
    25    13    14   ar
    26    14    15   ar
    27    15    16   ar
    28    16    17   ar
    29    16    18    1
    30    18    19   am
    31    19    20    2
    32    19    21    1
    33    21    22    1
    34     4     5    1
    35     5     6    1
    36     4     7    1
    37     7     8    1
    38    34    35   ar
    39    35    36   ar
    40    42    40    1
    41    36    26   ar
    42    35    29   ar
    43     6     1    1
    44     8     1    1
    45    17    12   ar
    46    22    15    1
    47    39    43    1
    48    39    44    1
    49     9    10    1
    50    18    23    1
@<TRIPOS>MOLECULE
*****
 44 50 0 0 0
SMALL
GASTEIGER

@<TRIPOS>ATOM
      1 C         138.3495  140.0987  163.8865 C.3     1  UNL1        0.0932
      2 C         138.1326  141.2091  164.8712 C.3     1  UNL1        0.0286
      3 C         137.9193  142.6120  164.3848 C.3     1  UNL1        0.0193
      4 C         137.9229  142.9043  162.9135 C.3     1  UNL1        0.0700
      5 C         138.1397  141.7937  161.9287 C.3     1  UNL1        0.0193
      6 C         138.3530  140.3909  162.4152 C.3     1  UNL1        0.0286
      7 C         138.0440  142.1198  163.1323 C.3     1  UNL1        0.1562
      8 O         138.2369  140.8513  163.5723 O.3     1  UNL1       -0.3572
      9 N         137.7096  144.3070  162.4270 N.3     1  UNL1       -0.2926
     10 H         136.9347  144.6915  162.9675 H       1  UNL1        0.1236
     11 C         138.8270  145.3049  162.5020 C.3     1  UNL1        0.1152
     12 C         140.2503  144.8480  162.3762 C.ar    1  UNL1        0.0765
     13 C         141.2298  145.1342  163.4755 C.ar    1  UNL1        0.0193
     14 C         142.6530  144.6774  163.3497 C.ar    1  UNL1        0.0411
     15 C         143.0966  143.9344  162.1245 C.ar    1  UNL1        0.1708
     16 C         142.1170  143.6482  161.0252 C.ar    1  UNL1        0.1682
     17 N         140.6939  144.1050  161.1510 N.ar    1  UNL1       -0.2304
     18 N         142.5607  142.9052  159.7999 N.am    1  UNL1       -0.2639
     19 C         143.9839  142.4484  159.6741 C.2     1  UNL1        0.2718
     20 O         144.4276  141.7053  158.4489 O.2     1  UNL1       -0.2707
     21 C         144.9634  142.7345  160.7735 C.3     1  UNL1        0.2898
     22 O         144.5198  143.4775  161.9987 O.3     1  UNL1       -0.4628
     23 H         141.9178  142.7173  159.0784 H       1  UNL1        0.1565
     24 C         138.5628  138.6958  164.3729 C.3     1  UNL1        0.0320
     25 C         139.8722  138.3082  164.9937 C.3     1  UNL1        0.0327
     26 C         142.0720  141.8331  166.7216 C.ar    1  UNL1        0.2249
     27 C         143.3598  142.2902  166.1030 C.ar    1  UNL1        0.0593
     28 C         143.9142  141.5723  164.9084 C.ar    1  UNL1        0.0254
     29 C         143.1809  140.3973  164.3324 C.ar    1  UNL1        0.0990
     30 N         143.7355  139.6794  163.1377 N.ar    1  UNL1       -0.2400
     31 C         143.0022  138.5044  162.5617 C.ar    1  UNL1        0.1281
     32 C         141.7144  138.0474  163.1804 C.ar    1  UNL1        0.1566
     33 F         140.9811  136.8724  162.6045 F       1  UNL1       -0.2028
     34 C         141.1599  138.7653  164.3750 C.ar    1  UNL1        0.0261
     35 C         141.8932  139.9402  164.9510 C.ar    1  UNL1        0.1002
     36 N         141.3387  140.6581  166.1456 N.ar    1  UNL1       -0.2104
     37 O         141.5175  142.5510  167.9163 O.3     1  UNL1       -0.4602
     38 C         142.1365  142.3479  169.2674 C.3     1  UNL1        0.2084
     39 N         144.0532  139.4691  171.4659 N.3     1  UNL1       -0.3221
     40 C         142.8528  139.9286  170.6927 C.3     1  UNL1        0.0546
     41 C         141.4752  139.6709  170.1581 C.3     1  UNL1        0.0206
     42 C         142.1513  140.9823  169.8880 C.3     1  UNL1        0.0593
     43 H         143.8919  138.5242  171.8143 H       1  UNL1        0.1188
     44 H         144.2126  140.0989  172.2522 H       1  UNL1        0.1188
@<TRIPOS>BOND
     1    39    40    1
     2    40    41    1
     3    41    42    1
     4    42    38    1
     5    38    37    1
     6    37    26    1
     7    26    27   ar
     8    27    28   ar
     9    28    29   ar
    10    29    30   ar
    11    30    31   ar
    12    31    32   ar
    13    32    33    1
    14    32    34   ar
    15    34    25    1
    16    25    24    1
    17    24     1    1
    18     1     2    1
    19     2     3    1
    20     3     4    1
    21     4     9    1
    22     9    11    1
    23    11    12    1
    24    12    13   ar
    25    13    14   ar
    26    14    15   ar
    27    15    16   ar
    28    16    17   ar
    29    16    18    1
    30    18    19   am
    31    19    20    2
    32    19    21    1
    33    21    22    1
    34     4     5    1
    35     5     6    1
    36     4     7    1
    37     7     8    1
    38    34    35   ar
    39    35    36   ar
    40    42    40    1
    41    36    26   ar
    42    35    29   ar
    43     6     1    1
    44     8     1    1
    45    17    12   ar
    46    22    15    1
    47    39    43    1
    48    39    44    1
    49     9    10    1
    50    18    23    1
@<TRIPOS>MOLECULE
*****
 44 50 0 0 0
SMALL
GASTEIGER

@<TRIPOS>ATOM
      1 C         141.4453  138.0428  164.6400 C.3     1  UNL1        0.0932
      2 C         140.1239  138.4777  165.2012 C.3     1  UNL1        0.0286
      3 C         138.9143  138.5319  164.3157 C.3     1  UNL1        0.0193
      4 C         139.0262  138.1514  162.8691 C.3     1  UNL1        0.0700
      5 C         140.3476  137.7165  162.3080 C.3     1  UNL1        0.0193
      6 C         141.5571  137.6623  163.1934 C.3     1  UNL1        0.0286
      7 C         139.7167  138.1058  163.3152 C.3     1  UNL1        0.1562
      8 O         140.8104  138.0567  164.1159 O.3     1  UNL1       -0.3572
      9 N         137.8166  138.2056  161.9836 N.3     1  UNL1       -0.2926
     10 H         137.0123  138.3550  162.5927 H       1  UNL1        0.1236
     11 C         137.7308  139.2322  160.8933 C.3     1  UNL1        0.1152
     12 C         138.0745  140.6635  161.1821 C.ar    1  UNL1        0.0765
     13 C         137.4242  141.3736  162.3323 C.ar    1  UNL1        0.0193
     14 C         137.7678  142.8048  162.6211 C.ar    1  UNL1        0.0411
     15 C         138.7616  143.5260  161.7597 C.ar    1  UNL1        0.1708
     16 C         139.4119  142.8159  160.6095 C.ar    1  UNL1        0.1682
     17 N         139.0683  141.3847  160.3207 N.ar    1  UNL1       -0.2304
     18 N         140.4058  143.5372  159.7480 N.am    1  UNL1       -0.2639
     19 C         140.7493  144.9685  160.0368 C.2     1  UNL1        0.2718
     20 O         141.7432  145.6897  159.1753 O.2     1  UNL1       -0.2707
     21 C         140.0991  145.6785  161.1870 C.3     1  UNL1        0.2898
     22 O         139.1053  144.9573  162.0484 O.3     1  UNL1       -0.4628
     23 H         140.8325  143.0712  158.9931 H       1  UNL1        0.1565
     24 C         142.6549  137.9886  165.5255 C.3     1  UNL1        0.0320
     25 C         143.5122  139.2070  165.6995 C.3     1  UNL1        0.0327
     26 C         141.0324  142.9575  165.8842 C.ar    1  UNL1        0.2249
     27 C         141.1249  143.9728  164.7839 C.ar    1  UNL1        0.0593
     28 C         142.0441  143.7379  163.6221 C.ar    1  UNL1        0.0254
     29 C         142.8707  142.4878  163.5605 C.ar    1  UNL1        0.0990
     30 N         143.7900  142.2529  162.3986 N.ar    1  UNL1       -0.2400
     31 C         144.6166  141.0027  162.3371 C.ar    1  UNL1        0.1281
     32 C         144.5240  139.9874  163.4374 C.ar    1  UNL1        0.1566
     33 F         145.3506  138.7373  163.3758 F       1  UNL1       -0.2028
     34 C         143.6048  140.2223  164.5992 C.ar    1  UNL1        0.0261
     35 C         142.7782  141.4725  164.6608 C.ar    1  UNL1        0.1002
     36 N         141.8590  141.7074  165.8226 N.ar    1  UNL1       -0.2104
     37 O         140.1132  143.1924  167.0461 O.3     1  UNL1       -0.4602
     38 C         140.4546  142.6366  168.3968 C.3     1  UNL1        0.2084
     39 N         139.9648  139.7276  171.2414 N.3     1  UNL1       -0.3221
     40 C         139.7973  140.2049  169.8294 C.3     1  UNL1        0.0546
     41 C         139.3278  139.9670  168.4247 C.3     1  UNL1        0.0206
     42 C         139.9766  141.2697  168.7882 C.3     1  UNL1        0.0593
     43 H         139.5869  138.7842  171.3285 H       1  UNL1        0.1188
     44 H         139.4656  140.3535  171.8734 H       1  UNL1        0.1188
@<TRIPOS>BOND
     1    39    40    1
     2    40    41    1
     3    41    42    1
     4    42    38    1
     5    38    37    1
     6    37    26    1
     7    26    27   ar
     8    27    28   ar
     9    28    29   ar
    10    29    30   ar
    11    30    31   ar
    12    31    32   ar
    13    32    33    1
    14    32    34   ar
    15    34    25    1
    16    25    24    1
    17    24     1    1
    18     1     2    1
    19     2     3    1
    20     3     4    1
    21     4     9    1
    22     9    11    1
    23    11    12    1
    24    12    13   ar
    25    13    14   ar
    26    14    15   ar
    27    15    16   ar
    28    16    17   ar
    29    16    18    1
    30    18    19   am
    31    19    20    2
    32    19    21    1
    33    21    22    1
    34     4     5    1
    35     5     6    1
    36     4     7    1
    37     7     8    1
    38    34    35   ar
    39    35    36   ar
    40    42    40    1
    41    36    26   ar
    42    35    29   ar
    43     6     1    1
    44     8     1    1
    45    17    12   ar
    46    22    15    1
    47    39    43    1
    48    39    44    1
    49     9    10    1
    50    18    23    1
@<TRIPOS>MOLECULE
*****
 44 50 0 0 0
SMALL
GASTEIGER

@<TRIPOS>ATOM
      1 C         138.0922  139.8357  162.6189 C.3     1  UNL1        0.0932
      2 C         138.1412  140.5745  161.3144 C.3     1  UNL1        0.0286
      3 C         138.0125  142.0689  161.2935 C.3     1  UNL1        0.0193
      4 C         137.8348  142.8243  162.5771 C.3     1  UNL1        0.0700
      5 C         137.7858  142.0854  163.8816 C.3     1  UNL1        0.0193
      6 C         137.9145  140.5912  163.9025 C.3     1  UNL1        0.0286
      7 C         137.9009  142.0059  162.6388 C.3     1  UNL1        0.1562
      8 O         138.0173  140.6547  162.6577 O.3     1  UNL1       -0.3572
      9 N         137.7061  144.3186  162.5562 N.3     1  UNL1       -0.2926
     10 H         136.9763  144.5607  163.2264 H       1  UNL1        0.1236
     11 C         138.8924  145.1781  162.8787 C.3     1  UNL1        0.1152
     12 C         140.2730  144.5921  162.8504 C.ar    1  UNL1        0.0765
     13 C         140.9826  144.2821  164.1350 C.ar    1  UNL1        0.0193
     14 C         142.3631  143.6962  164.1067 C.ar    1  UNL1        0.0411
     15 C         143.0340  143.4203  162.7938 C.ar    1  UNL1        0.1708
     16 C         142.3244  143.7303  161.5092 C.ar    1  UNL1        0.1682
     17 N         140.9438  144.3162  161.5375 N.ar    1  UNL1       -0.2304
     18 N         142.9953  143.4543  160.1963 N.am    1  UNL1       -0.2639
     19 C         144.3758  142.8684  160.1680 C.2     1  UNL1        0.2718
     20 O         145.0467  142.5925  158.8550 O.2     1  UNL1       -0.2707
     21 C         145.0854  142.5584  161.4526 C.3     1  UNL1        0.2898
     22 O         144.4146  142.8343  162.7655 O.3     1  UNL1       -0.4628
     23 H         142.5296  143.6578  159.3531 H       1  UNL1        0.1565
     24 C         138.2209  138.3413  162.6398 C.3     1  UNL1        0.0320
     25 C         139.5303  137.7063  163.0033 C.3     1  UNL1        0.0327
     26 C         143.0134  138.8290  165.6220 C.ar    1  UNL1        0.2249
     27 C         144.2860  139.3280  165.0043 C.ar    1  UNL1        0.0593
     28 C         144.3975  139.4526  163.5137 C.ar    1  UNL1        0.0254
     29 C         143.2365  139.0784  162.6408 C.ar    1  UNL1        0.0990
     30 N         143.3480  139.2031  161.1501 N.ar    1  UNL1       -0.2400
     31 C         142.1870  138.8288  160.2772 C.ar    1  UNL1        0.1281
     32 C         140.9144  138.3299  160.8950 C.ar    1  UNL1        0.1566
     33 F         139.7534  137.9557  160.0221 F       1  UNL1       -0.2028
     34 C         140.8029  138.2052  162.3856 C.ar    1  UNL1        0.0261
     35 C         141.9639  138.5795  163.2585 C.ar    1  UNL1        0.1002
     36 N         141.8524  138.4548  164.7491 N.ar    1  UNL1       -0.2104
     37 O         142.9018  138.7044  167.1127 O.3     1  UNL1       -0.4602
     38 C         142.3050  139.8215  167.9162 C.3     1  UNL1        0.2084
     39 N         138.9353  140.6560  170.0941 N.3     1  UNL1       -0.3221
     40 C         139.5815  140.2801  168.7937 C.3     1  UNL1        0.0546
     41 C         139.4676  139.9345  167.3386 C.3     1  UNL1        0.0206
     42 C         140.8149  139.9747  167.9965 C.3     1  UNL1        0.0593
     43 H         137.9250  140.7154  169.9670 H       1  UNL1        0.1188
     44 H         139.2929  141.5600  170.4027 H       1  UNL1        0.1188
@<TRIPOS>BOND
     1    39    40    1
     2    40    41    1
     3    41    42    1
     4    42    38    1
     5    38    37    1
     6    37    26    1
     7    26    27   ar
     8    27    28   ar
     9    28    29   ar
    10    29    30   ar
    11    30    31   ar
    12    31    32   ar
    13    32    33    1
    14    32    34   ar
    15    34    25    1
    16    25    24    1
    17    24     1    1
    18     1     2    1
    19     2     3    1
    20     3     4    1
    21     4     9    1
    22     9    11    1
    23    11    12    1
    24    12    13   ar
    25    13    14   ar
    26    14    15   ar
    27    15    16   ar
    28    16    17   ar
    29    16    18    1
    30    18    19   am
    31    19    20    2
    32    19    21    1
    33    21    22    1
    34     4     5    1
    35     5     6    1
    36     4     7    1
    37     7     8    1
    38    34    35   ar
    39    35    36   ar
    40    42    40    1
    41    36    26   ar
    42    35    29   ar
    43     6     1    1
    44     8     1    1
    45    17    12   ar
    46    22    15    1
    47    39    43    1
    48    39    44    1
    49     9    10    1
    50    18    23    1
