@<TRIPOS>MOLECULE
*****
 25 27 0 0 0
SMALL
GASTEIGER

@<TRIPOS>ATOM
      1 C         141.0034  142.6952  161.3401 C.3     1  UNL1        0.0323
      2 C         141.9560  143.3016  162.3274 C.ar    1  UNL1       -0.0085
      3 C         141.7393  144.7034  162.8150 C.ar    1  UNL1       -0.0030
      4 C         142.6920  145.3098  163.8023 C.ar    1  UNL1       -0.0006
      5 C         143.8613  144.5143  164.3020 C.ar    1  UNL1       -0.0031
      6 C         144.0780  143.1124  163.8144 C.ar    1  UNL1       -0.0087
      7 C         143.1254  142.5061  162.8271 C.ar    1  UNL1        0.0458
      8 N         143.3422  141.1042  162.3395 N.am    1  UNL1       -0.2585
      9 C         142.3895  140.4978  161.3522 C.2     1  UNL1        0.2407
     10 O         141.2201  141.2934  160.8525 O.2     1  UNL1       -0.2736
     11 C         144.5115  140.3087  162.8392 C.3     1  UNL1        0.0985
     12 C         145.4642  140.9150  163.8266 C.3     1  UNL1        0.0266
     13 C         145.2474  142.3169  164.3142 C.3     1  UNL1        0.0294
     14 C         142.6063  139.0959  160.8646 C.3     1  UNL1        0.1489
     15 S         141.5649  138.0456  161.1142 S.3     1  UNL1       -0.0851
     16 C         140.7138  138.1115  162.3477 C.ar    1  UNL1        0.1071
     17 C         141.1853  137.4709  163.6194 C.ar    1  UNL1        0.0254
     18 C         140.3342  137.5368  164.8528 C.ar    1  UNL1        0.0075
     19 C         139.0117  138.2434  164.8145 C.ar    1  UNL1        0.0906
     20 C         138.5401  138.8840  163.5428 C.ar    1  UNL1        0.1032
     21 N         139.3912  138.8181  162.3094 N.ar    1  UNL1       -0.2377
     22 C         138.1605  138.3093  166.0479 C.3     1  UNL1        0.4200
     23 F         137.3095  138.3752  167.2813 F       1  UNL1       -0.1658
     24 F         138.1100  136.8109  166.0931 F       1  UNL1       -0.1658
     25 F         138.2111  139.8077  166.0028 F       1  UNL1       -0.1658
@<TRIPOS>BOND
     1     1     2    1
     2     2     3   ar
     3     3     4   ar
     4     4     5   ar
     5     5     6   ar
     6     6     7   ar
     7     7     8    1
     8     8     9   am
     9     9    10    2
    10     9    14    1
    11    14    15    1
    12    15    16    1
    13    16    17   ar
    14    17    18   ar
    15    18    19   ar
    16    19    22    1
    17    22    23    1
    18    22    24    1
    19    22    25    1
    20    19    20   ar
    21    20    21   ar
    22     8    11    1
    23    11    12    1
    24    12    13    1
    25     7     2   ar
    26    21    16   ar
    27    13     6    1
@<TRIPOS>MOLECULE
*****
 25 27 0 0 0
SMALL
GASTEIGER

@<TRIPOS>ATOM
      1 C         142.3028  140.8709  160.7645 C.3     1  UNL1        0.0323
      2 C         142.9535  140.3282  162.0023 C.ar    1  UNL1       -0.0085
      3 C         144.3343  140.7751  162.3813 C.ar    1  UNL1       -0.0030
      4 C         144.9849  140.2325  163.6191 C.ar    1  UNL1       -0.0006
      5 C         144.2548  139.2428  164.4779 C.ar    1  UNL1       -0.0031
      6 C         142.8741  138.7959  164.0988 C.ar    1  UNL1       -0.0087
      7 C         142.2234  139.3386  162.8611 C.ar    1  UNL1        0.0458
      8 N         140.8426  138.8916  162.4821 N.am    1  UNL1       -0.2585
      9 C         140.1919  139.4343  161.2443 C.2     1  UNL1        0.2407
     10 O         140.9221  140.4240  160.3855 O.2     1  UNL1       -0.2736
     11 C         140.1125  137.9020  163.3408 C.3     1  UNL1        0.0985
     12 C         140.7631  137.3593  164.5786 C.3     1  UNL1        0.0266
     13 C         142.1439  137.8062  164.9576 C.3     1  UNL1        0.0294
     14 C         138.8111  138.9873  160.8653 C.3     1  UNL1        0.1489
     15 S         137.6165  139.7659  161.3309 S.3     1  UNL1       -0.0851
     16 C         137.7967  140.9376  162.2500 C.ar    1  UNL1        0.1071
     17 C         137.9576  140.7162  163.7248 C.ar    1  UNL1        0.0254
     18 C         138.1377  141.8878  164.6439 C.ar    1  UNL1        0.0075
     19 C         138.1570  143.2809  164.0882 C.ar    1  UNL1        0.0906
     20 C         137.9961  143.5023  162.6134 C.ar    1  UNL1        0.1032
     21 N         137.8160  142.3307  161.6943 N.ar    1  UNL1       -0.2377
     22 C         138.3372  144.4526  165.0073 C.3     1  UNL1        0.4200
     23 F         138.5174  145.6243  165.9263 F       1  UNL1       -0.1658
     24 F         139.8190  144.4028  164.7802 F       1  UNL1       -0.1658
     25 F         136.8553  144.5024  165.2343 F       1  UNL1       -0.1658
@<TRIPOS>BOND
     1     1     2    1
     2     2     3   ar
     3     3     4   ar
     4     4     5   ar
     5     5     6   ar
     6     6     7   ar
     7     7     8    1
     8     8     9   am
     9     9    10    2
    10     9    14    1
    11    14    15    1
    12    15    16    1
    13    16    17   ar
    14    17    18   ar
    15    18    19   ar
    16    19    22    1
    17    22    23    1
    18    22    24    1
    19    22    25    1
    20    19    20   ar
    21    20    21   ar
    22     8    11    1
    23    11    12    1
    24    12    13    1
    25     7     2   ar
    26    21    16   ar
    27    13     6    1
@<TRIPOS>MOLECULE
*****
 25 27 0 0 0
SMALL
GASTEIGER

@<TRIPOS>ATOM
      1 C         141.8665  140.5920  167.2225 C.3     1  UNL1        0.0323
      2 C         140.7253  139.7958  166.6624 C.ar    1  UNL1       -0.0085
      3 C         139.4086  139.7649  167.3803 C.ar    1  UNL1       -0.0030
      4 C         138.2675  138.9686  166.8202 C.ar    1  UNL1       -0.0006
      5 C         138.4429  138.2033  165.5422 C.ar    1  UNL1       -0.0031
      6 C         139.7596  138.2342  164.8243 C.ar    1  UNL1       -0.0087
      7 C         140.9007  139.0304  165.3844 C.ar    1  UNL1        0.0458
      8 N         142.2174  139.0613  164.6664 N.am    1  UNL1       -0.2585
      9 C         143.3586  139.8575  165.2265 C.2     1  UNL1        0.2407
     10 O         143.1831  140.6229  166.5046 O.2     1  UNL1       -0.2736
     11 C         142.3929  138.2960  163.3883 C.3     1  UNL1        0.0985
     12 C         141.2517  137.4998  162.8282 C.3     1  UNL1        0.0266
     13 C         139.9351  137.4689  163.5461 C.3     1  UNL1        0.0294
     14 C         144.6752  139.8885  164.5085 C.3     1  UNL1        0.1489
     15 S         145.0708  141.1011  163.7192 S.3     1  UNL1       -0.0851
     16 C         144.0564  142.1648  163.4197 C.ar    1  UNL1        0.1071
     17 C         144.0270  143.4238  164.2346 C.ar    1  UNL1        0.0254
     18 C         143.0126  144.4874  163.9351 C.ar    1  UNL1        0.0075
     19 C         142.0278  144.2921  162.8207 C.ar    1  UNL1        0.0906
     20 C         142.0573  143.0331  162.0058 C.ar    1  UNL1        0.1032
     21 N         143.0716  141.9694  162.3053 N.ar    1  UNL1       -0.2377
     22 C         141.0134  145.3558  162.5212 C.3     1  UNL1        0.4200
     23 F         139.9990  146.4194  162.2217 F       1  UNL1       -0.1658
     24 F         140.6749  145.4436  163.9798 F       1  UNL1       -0.1658
     25 F         141.3519  145.2679  161.0626 F       1  UNL1       -0.1658
@<TRIPOS>BOND
     1     1     2    1
     2     2     3   ar
     3     3     4   ar
     4     4     5   ar
     5     5     6   ar
     6     6     7   ar
     7     7     8    1
     8     8     9   am
     9     9    10    2
    10     9    14    1
    11    14    15    1
    12    15    16    1
    13    16    17   ar
    14    17    18   ar
    15    18    19   ar
    16    19    22    1
    17    22    23    1
    18    22    24    1
    19    22    25    1
    20    19    20   ar
    21    20    21   ar
    22     8    11    1
    23    11    12    1
    24    12    13    1
    25     7     2   ar
    26    21    16   ar
    27    13     6    1
@<TRIPOS>MOLECULE
*****
 25 27 0 0 0
SMALL
GASTEIGER

@<TRIPOS>ATOM
      1 C         137.9147  142.0068  164.5777 C.3     1  UNL1        0.0323
      2 C         138.2799  140.5521  164.6026 C.ar    1  UNL1       -0.0085
      3 C         138.1065  139.7568  165.8625 C.ar    1  UNL1       -0.0030
      4 C         138.4717  138.3022  165.8875 C.ar    1  UNL1       -0.0006
      5 C         139.0103  137.6429  164.6525 C.ar    1  UNL1       -0.0031
      6 C         139.1837  138.4382  163.3926 C.ar    1  UNL1       -0.0087
      7 C         138.8185  139.8928  163.3677 C.ar    1  UNL1        0.0458
      8 N         138.9918  140.6881  162.1077 N.am    1  UNL1       -0.2585
      9 C         138.6266  142.1428  162.0827 C.2     1  UNL1        0.2407
     10 O         138.0880  142.8021  163.3178 O.2     1  UNL1       -0.2736
     11 C         139.5304  140.0288  160.8727 C.3     1  UNL1        0.0985
     12 C         139.8956  138.5741  160.8977 C.3     1  UNL1        0.0266
     13 C         139.7223  137.7788  162.1576 C.3     1  UNL1        0.0294
     14 C         138.8000  142.9381  160.8228 C.3     1  UNL1        0.1489
     15 S         140.0410  143.7549  160.6163 S.3     1  UNL1       -0.0851
     16 C         141.0771  143.8317  161.6983 C.ar    1  UNL1        0.1071
     17 C         141.0978  145.0032  162.6350 C.ar    1  UNL1        0.0254
     18 C         142.1337  145.0801  163.7170 C.ar    1  UNL1        0.0075
     19 C         143.1489  143.9855  163.8624 C.ar    1  UNL1        0.0906
     20 C         143.1282  142.8140  162.9258 C.ar    1  UNL1        0.1032
     21 N         142.0923  142.7371  161.8438 N.ar    1  UNL1       -0.2377
     22 C         144.1850  144.0623  164.9445 C.3     1  UNL1        0.4200
     23 F         145.2209  144.1391  166.0265 F       1  UNL1       -0.1658
     24 F         144.1600  142.5682  165.0744 F       1  UNL1       -0.1658
     25 F         144.2099  145.5565  164.8146 F       1  UNL1       -0.1658
@<TRIPOS>BOND
     1     1     2    1
     2     2     3   ar
     3     3     4   ar
     4     4     5   ar
     5     5     6   ar
     6     6     7   ar
     7     7     8    1
     8     8     9   am
     9     9    10    2
    10     9    14    1
    11    14    15    1
    12    15    16    1
    13    16    17   ar
    14    17    18   ar
    15    18    19   ar
    16    19    22    1
    17    22    23    1
    18    22    24    1
    19    22    25    1
    20    19    20   ar
    21    20    21   ar
    22     8    11    1
    23    11    12    1
    24    12    13    1
    25     7     2   ar
    26    21    16   ar
    27    13     6    1
@<TRIPOS>MOLECULE
*****
 25 27 0 0 0
SMALL
GASTEIGER

@<TRIPOS>ATOM
      1 C         139.3272  142.0863  165.5195 C.3     1  UNL1        0.0323
      2 C         140.0025  143.1698  164.7321 C.ar    1  UNL1       -0.0085
      3 C         139.1960  144.0524  163.8262 C.ar    1  UNL1       -0.0030
      4 C         139.8712  145.1359  163.0388 C.ar    1  UNL1       -0.0006
      5 C         141.3530  145.3368  163.1572 C.ar    1  UNL1       -0.0031
      6 C         142.1594  144.4542  164.0630 C.ar    1  UNL1       -0.0087
      7 C         141.4842  143.3706  164.8504 C.ar    1  UNL1        0.0458
      8 N         142.2907  142.4880  165.7563 N.am    1  UNL1       -0.2585
      9 C         141.6155  141.4045  166.5437 C.2     1  UNL1        0.2407
     10 O         140.1337  141.2036  166.4253 O.2     1  UNL1       -0.2736
     11 C         143.7725  142.6889  165.8747 C.3     1  UNL1        0.0985
     12 C         144.4477  143.7724  165.0873 C.3     1  UNL1        0.0266
     13 C         143.6413  144.6550  164.1815 C.3     1  UNL1        0.0294
     14 C         142.4219  140.5219  167.4495 C.3     1  UNL1        0.1489
     15 S         142.8221  139.1488  166.9973 S.3     1  UNL1       -0.0851
     16 C         142.8213  138.8106  165.5359 C.ar    1  UNL1        0.1071
     17 C         141.6911  138.0170  164.9503 C.ar    1  UNL1        0.0254
     18 C         141.6903  137.6788  163.4890 C.ar    1  UNL1        0.0075
     19 C         142.8197  138.1341  162.6132 C.ar    1  UNL1        0.0906
     20 C         143.9500  138.9277  163.1988 C.ar    1  UNL1        0.1032
     21 N         143.9508  139.2659  164.6601 N.ar    1  UNL1       -0.2377
     22 C         142.8190  137.7959  161.1518 C.3     1  UNL1        0.4200
     23 F         142.8182  137.4577  159.6904 F       1  UNL1       -0.1658
     24 F         144.3189  137.7811  161.1545 F       1  UNL1       -0.1658
     25 F         141.3191  137.8107  161.1491 F       1  UNL1       -0.1658
@<TRIPOS>BOND
     1     1     2    1
     2     2     3   ar
     3     3     4   ar
     4     4     5   ar
     5     5     6   ar
     6     6     7   ar
     7     7     8    1
     8     8     9   am
     9     9    10    2
    10     9    14    1
    11    14    15    1
    12    15    16    1
    13    16    17   ar
    14    17    18   ar
    15    18    19   ar
    16    19    22    1
    17    22    23    1
    18    22    24    1
    19    22    25    1
    20    19    20   ar
    21    20    21   ar
    22     8    11    1
    23    11    12    1
    24    12    13    1
    25     7     2   ar
    26    21    16   ar
    27    13     6    1
@<TRIPOS>MOLECULE
*****
 25 27 0 0 0
SMALL
GASTEIGER

@<TRIPOS>ATOM
      1 C         142.2118  138.0804  163.2773 C.3     1  UNL1        0.0323
      2 C         141.1716  138.4356  164.2980 C.ar    1  UNL1       -0.0085
      3 C         139.8754  137.6820  164.3414 C.ar    1  UNL1       -0.0030
      4 C         138.8352  138.0372  165.3621 C.ar    1  UNL1       -0.0006
      5 C         139.0912  139.1460  166.3393 C.ar    1  UNL1       -0.0031
      6 C         140.3873  139.8996  166.2959 C.ar    1  UNL1       -0.0087
      7 C         141.4276  139.5444  165.2752 C.ar    1  UNL1        0.0458
      8 N         142.7238  140.2981  165.2318 N.am    1  UNL1       -0.2585
      9 C         143.7640  139.9429  164.2111 C.2     1  UNL1        0.2407
     10 O         143.5080  138.8340  163.2338 O.2     1  UNL1       -0.2736
     11 C         142.9798  141.4069  166.2090 C.3     1  UNL1        0.0985
     12 C         141.9396  141.7621  167.2297 C.3     1  UNL1        0.0266
     13 C         140.6434  141.0085  167.2731 C.3     1  UNL1        0.0294
     14 C         145.0602  140.6965  164.1676 C.3     1  UNL1        0.1489
     15 S         145.2297  141.8430  163.2153 S.3     1  UNL1       -0.0851
     16 C         144.0806  142.7679  162.9430 C.ar    1  UNL1        0.1071
     17 C         143.8640  143.9710  163.8124 C.ar    1  UNL1        0.0254
     18 C         142.7150  144.8960  163.5402 C.ar    1  UNL1        0.0075
     19 C         141.7826  144.6179  162.3986 C.ar    1  UNL1        0.0906
     20 C         141.9991  143.4148  161.5293 C.ar    1  UNL1        0.1032
     21 N         143.1482  142.4898  161.8015 N.ar    1  UNL1       -0.2377
     22 C         140.6335  145.5428  162.1263 C.3     1  UNL1        0.4200
     23 F         139.4844  146.4678  161.8541 F       1  UNL1       -0.1658
     24 F         140.2004  145.4261  163.5577 F       1  UNL1       -0.1658
     25 F         141.0665  145.6596  160.6950 F       1  UNL1       -0.1658
@<TRIPOS>BOND
     1     1     2    1
     2     2     3   ar
     3     3     4   ar
     4     4     5   ar
     5     5     6   ar
     6     6     7   ar
     7     7     8    1
     8     8     9   am
     9     9    10    2
    10     9    14    1
    11    14    15    1
    12    15    16    1
    13    16    17   ar
    14    17    18   ar
    15    18    19   ar
    16    19    22    1
    17    22    23    1
    18    22    24    1
    19    22    25    1
    20    19    20   ar
    21    20    21   ar
    22     8    11    1
    23    11    12    1
    24    12    13    1
    25     7     2   ar
    26    21    16   ar
    27    13     6    1
@<TRIPOS>MOLECULE
*****
 25 27 0 0 0
SMALL
GASTEIGER

@<TRIPOS>ATOM
      1 C         140.4329  137.9966  164.5826 C.3     1  UNL1        0.0323
      2 C         141.8569  138.4663  164.5398 C.ar    1  UNL1       -0.0085
      3 C         142.7420  138.2873  165.7374 C.ar    1  UNL1       -0.0030
      4 C         144.1659  138.7570  165.6947 C.ar    1  UNL1       -0.0006
      5 C         144.7047  139.4058  164.4542 C.ar    1  UNL1       -0.0031
      6 C         143.8196  139.5848  163.2565 C.ar    1  UNL1       -0.0087
      7 C         142.3957  139.1151  163.2993 C.ar    1  UNL1        0.0458
      8 N         141.5105  139.2941  162.1016 N.am    1  UNL1       -0.2585
      9 C         140.0866  138.8244  162.1443 C.2     1  UNL1        0.2407
     10 O         139.5478  138.1756  163.3849 O.2     1  UNL1       -0.2736
     11 C         142.0493  139.9429  160.8611 C.3     1  UNL1        0.0985
     12 C         143.4732  140.4126  160.8183 C.3     1  UNL1        0.0266
     13 C         144.3583  140.2336  162.0160 C.3     1  UNL1        0.0294
     14 C         139.2015  139.0035  160.9467 C.3     1  UNL1        0.1489
     15 S         138.3161  140.2098  160.8420 S.3     1  UNL1       -0.0851
     16 C         138.3726  141.2753  161.8963 C.ar    1  UNL1        0.1071
     17 C         137.4595  141.2040  163.0843 C.ar    1  UNL1        0.0254
     18 C         137.5159  142.2695  164.1386 C.ar    1  UNL1        0.0075
     19 C         138.4854  143.4062  164.0049 C.ar    1  UNL1        0.0906
     20 C         139.3985  143.4775  162.8170 C.ar    1  UNL1        0.1032
     21 N         139.3421  142.4120  161.7627 N.ar    1  UNL1       -0.2377
     22 C         138.5418  144.4717  165.0593 C.3     1  UNL1        0.4200
     23 F         138.5983  145.5372  166.1135 F       1  UNL1       -0.1658
     24 F         140.0384  144.4905  164.9600 F       1  UNL1       -0.1658
     25 F         137.0453  144.4529  165.1585 F       1  UNL1       -0.1658
@<TRIPOS>BOND
     1     1     2    1
     2     2     3   ar
     3     3     4   ar
     4     4     5   ar
     5     5     6   ar
     6     6     7   ar
     7     7     8    1
     8     8     9   am
     9     9    10    2
    10     9    14    1
    11    14    15    1
    12    15    16    1
    13    16    17   ar
    14    17    18   ar
    15    18    19   ar
    16    19    22    1
    17    22    23    1
    18    22    24    1
    19    22    25    1
    20    19    20   ar
    21    20    21   ar
    22     8    11    1
    23    11    12    1
    24    12    13    1
    25     7     2   ar
    26    21    16   ar
    27    13     6    1
@<TRIPOS>MOLECULE
*****
 25 27 0 0 0
SMALL
GASTEIGER

@<TRIPOS>ATOM
      1 C         142.1248  143.7085  163.7925 C.3     1  UNL1        0.0323
      2 C         140.6552  143.6730  163.4940 C.ar    1  UNL1       -0.0085
      3 C         139.9459  144.9243  163.0684 C.ar    1  UNL1       -0.0030
      4 C         138.4763  144.8888  162.7699 C.ar    1  UNL1       -0.0006
      5 C         137.7161  143.6020  162.8969 C.ar    1  UNL1       -0.0031
      6 C         138.4254  142.3508  163.3225 C.ar    1  UNL1       -0.0087
      7 C         139.8949  142.3862  163.6210 C.ar    1  UNL1        0.0458
      8 N         140.6042  141.1349  164.0466 N.am    1  UNL1       -0.2585
      9 C         142.0738  141.1703  164.3451 C.2     1  UNL1        0.2407
     10 O         142.8340  142.4572  164.2181 O.2     1  UNL1       -0.2736
     11 C         139.8440  139.8481  164.1736 C.3     1  UNL1        0.0985
     12 C         138.3744  139.8126  163.8751 C.3     1  UNL1        0.0266
     13 C         137.6651  141.0639  163.4495 C.3     1  UNL1        0.0294
     14 C         142.7831  139.9191  164.7707 C.3     1  UNL1        0.1489
     15 S         142.8936  139.5780  166.2272 S.3     1  UNL1       -0.0851
     16 C         142.1342  140.3772  167.2444 C.ar    1  UNL1        0.1071
     17 C         142.7379  141.6228  167.8224 C.ar    1  UNL1        0.0254
     18 C         141.9786  142.4220  168.8395 C.ar    1  UNL1        0.0075
     19 C         140.6156  141.9757  169.2786 C.ar    1  UNL1        0.0906
     20 C         140.0118  140.7302  168.7006 C.ar    1  UNL1        0.1032
     21 N         140.7711  139.9309  167.6834 N.ar    1  UNL1       -0.2377
     22 C         139.8561  142.7750  170.2958 C.3     1  UNL1        0.4200
     23 F         139.0968  143.5742  171.3129 F       1  UNL1       -0.1658
     24 F         140.8845  143.8635  170.2081 F       1  UNL1       -0.1658
     25 F         138.8278  141.6865  170.3834 F       1  UNL1       -0.1658
@<TRIPOS>BOND
     1     1     2    1
     2     2     3   ar
     3     3     4   ar
     4     4     5   ar
     5     5     6   ar
     6     6     7   ar
     7     7     8    1
     8     8     9   am
     9     9    10    2
    10     9    14    1
    11    14    15    1
    12    15    16    1
    13    16    17   ar
    14    17    18   ar
    15    18    19   ar
    16    19    22    1
    17    22    23    1
    18    22    24    1
    19    22    25    1
    20    19    20   ar
    21    20    21   ar
    22     8    11    1
    23    11    12    1
    24    12    13    1
    25     7     2   ar
    26    21    16   ar
    27    13     6    1
@<TRIPOS>MOLECULE
*****
 25 27 0 0 0
SMALL
GASTEIGER

@<TRIPOS>ATOM
      1 C         142.8113  138.4137  164.4788 C.3     1  UNL1        0.0323
      2 C         142.7266  138.5451  162.9870 C.ar    1  UNL1       -0.0085
      3 C         143.9690  138.7942  162.1843 C.ar    1  UNL1       -0.0030
      4 C         143.8843  138.9257  160.6925 C.ar    1  UNL1       -0.0006
      5 C         142.5573  138.8079  160.0033 C.ar    1  UNL1       -0.0031
      6 C         141.3149  138.5587  160.8060 C.ar    1  UNL1       -0.0087
      7 C         141.3996  138.4273  162.2978 C.ar    1  UNL1        0.0458
      8 N         140.1571  138.1781  163.1005 N.am    1  UNL1       -0.2585
      9 C         140.2417  138.0467  164.5923 C.2     1  UNL1        0.2407
     10 O         141.5689  138.1645  165.2815 O.2     1  UNL1       -0.2736
     11 C         138.8300  138.0604  162.4113 C.3     1  UNL1        0.0985
     12 C         138.7453  138.1918  160.9195 C.3     1  UNL1        0.0266
     13 C         139.9877  138.4410  160.1168 C.3     1  UNL1        0.0294
     14 C         138.9994  137.7975  165.3950 C.3     1  UNL1        0.1489
     15 S         138.2721  138.9468  166.0277 S.3     1  UNL1       -0.0851
     16 C         139.0207  139.9333  166.8743 C.ar    1  UNL1        0.1071
     17 C         139.6317  141.1501  166.2450 C.ar    1  UNL1        0.0254
     18 C         140.3802  142.1365  167.0915 C.ar    1  UNL1        0.0075
     19 C         140.5177  141.9062  168.5673 C.ar    1  UNL1        0.0906
     20 C         139.9066  140.6893  169.1966 C.ar    1  UNL1        0.1032
     21 N         139.1581  139.7029  168.3501 N.ar    1  UNL1       -0.2377
     22 C         141.2662  142.8926  169.4139 C.3     1  UNL1        0.4200
     23 F         142.0147  143.8790  170.2605 F       1  UNL1       -0.1658
     24 F         142.3200  141.8602  169.6850 F       1  UNL1       -0.1658
     25 F         140.2123  143.9250  169.1429 F       1  UNL1       -0.1658
@<TRIPOS>BOND
     1     1     2    1
     2     2     3   ar
     3     3     4   ar
     4     4     5   ar
     5     5     6   ar
     6     6     7   ar
     7     7     8    1
     8     8     9   am
     9     9    10    2
    10     9    14    1
    11    14    15    1
    12    15    16    1
    13    16    17   ar
    14    17    18   ar
    15    18    19   ar
    16    19    22    1
    17    22    23    1
    18    22    24    1
    19    22    25    1
    20    19    20   ar
    21    20    21   ar
    22     8    11    1
    23    11    12    1
    24    12    13    1
    25     7     2   ar
    26    21    16   ar
    27    13     6    1
