@<TRIPOS>MOLECULE
*****
 48 55 0 0 0
SMALL
GASTEIGER

@<TRIPOS>ATOM
      1 C         140.5782  144.7313  157.9079 C.ar    1  UNL1        0.1384
      2 C         141.4096  144.2865  156.7413 C.ar    1  UNL1        0.0369
      3 C         141.8383  142.8535  156.6289 C.ar    1  UNL1        0.0042
      4 C         141.4356  141.8653  157.6829 C.ar    1  UNL1        0.0117
      5 C         140.6042  142.3099  158.8495 C.ar    1  UNL1       -0.0176
      6 C         140.1755  143.7430  158.9620 C.ar    1  UNL1        0.0327
      7 C         140.0975  141.4943  160.0019 C.3     1  UNL1        0.0330
      8 C         139.4983  140.8695  161.2269 C.3     1  UNL1        0.0157
      9 C         140.2972  140.0325  160.2724 C.3     1  UNL1        0.0938
     10 C         141.0528  139.0253  159.4571 C.3     1  UNL1        0.1148
     11 N         141.7954  139.2310  158.1702 N.ar    1  UNL1       -0.3269
     12 C         141.9657  140.4950  157.3806 C.ar    1  UNL1        0.0555
     13 C         142.7925  140.1774  156.1700 C.ar    1  UNL1       -0.0053
     14 C         143.1330  138.7171  156.2114 C.ar    1  UNL1        0.0132
     15 C         143.9247  137.8443  155.2831 C.ar    1  UNL1        0.0013
     16 C         144.1001  136.3868  155.5911 C.ar    1  UNL1        0.0046
     17 C         143.4839  135.8020  156.8273 C.ar    1  UNL1        0.0563
     18 C         142.6922  136.6747  157.7556 C.ar    1  UNL1        0.0217
     19 C         142.5168  138.1323  157.4477 C.ar    1  UNL1        0.0597
     20 C         140.0074  138.8936  161.2047 C.2     1  UNL1        0.2268
     21 O         138.8085  138.0221  160.9741 O.2     1  UNL1       -0.2748
     22 N         140.9165  138.6264  162.3674 N.am    1  UNL1       -0.2800
     23 C         142.1462  139.4083  162.7231 C.3     1  UNL1        0.0913
     24 C         142.7451  138.7954  163.9543 C.3     1  UNL1        0.0230
     25 C         141.8856  137.6347  164.3594 C.3     1  UNL1        0.0230
     26 C         140.7555  137.5303  163.3787 C.3     1  UNL1        0.0913
     27 C         139.7484  137.6652  162.2621 C.3     1  UNL1        0.0922
     28 N         140.0382  138.8040  161.3298 N.3     1  UNL1       -0.2687
     29 C         139.1291  139.0713  160.1670 C.3     1  UNL1        0.0897
     30 C         141.2370  139.6756  161.5604 C.3     1  UNL1        0.0922
     31 C         143.2060  141.1492  155.1050 C.3     1  UNL1        0.0238
     32 C         144.4900  141.9123  155.2436 C.3     1  UNL1        0.0044
     33 C         144.9037  142.8841  154.1787 C.3     1  UNL1        0.0003
     34 C         144.0333  143.0930  152.9749 C.3     1  UNL1        0.0000
     35 C         142.7494  142.3300  152.8363 C.3     1  UNL1        0.0003
     36 C         142.3357  141.3581  153.9013 C.3     1  UNL1        0.0044
     37 C         143.6592  134.3445  157.1353 C.2     1  UNL1        0.2640
     38 O         143.9002  133.9000  158.5475 O.2     1  UNL1       -0.2686
     39 N         143.5937  133.3314  156.0310 N.am    1  UNL1       -0.1853
     40 H         143.4356  133.6231  155.1041 H       1  UNL1        0.1765
     41 S         143.7691  131.8739  156.3389 S.O2    1  UNL1        0.0545
     42 O         142.2915  131.7434  156.5624 O.2     1  UNL1       -0.1545
     43 O         145.2466  132.0043  156.1154 O.2     1  UNL1       -0.1545
     44 C         143.9444  130.4163  156.6468 C.3     1  UNL1        0.1490
     45 C         144.5046  129.9918  157.9719 C.3     1  UNL1        0.0273
     46 C         143.5594  129.3834  155.6296 C.3     1  UNL1        0.0273
     47 C         139.5891  146.8755  156.8245 C.3     1  UNL1        0.2525
     48 O         140.1495  146.1643  158.0203 O.3     1  UNL1       -0.4714
@<TRIPOS>BOND
     1    47    48    1
     2    48     1    1
     3     1     2   ar
     4     2     3   ar
     5     3     4   ar
     6     4     5   ar
     7     5     6   ar
     8     5     7    1
     9     7     8    1
    10     8     9    1
    11     9    20    1
    12    20    21    2
    13    20    22   am
    14    22    23    1
    15    23    24    1
    16    24    25    1
    17    25    26    1
    18    26    27    1
    19    27    28    1
    20    28    29    1
    21    28    30    1
    22     9    10    1
    23    10    11    1
    24    11    12   ar
    25    12    13   ar
    26    13    31    1
    27    31    32    1
    28    32    33    1
    29    33    34    1
    30    34    35    1
    31    35    36    1
    32    13    14   ar
    33    14    15   ar
    34    15    16   ar
    35    16    17   ar
    36    17    37    1
    37    37    38    2
    38    37    39   am
    39    39    41    1
    40    41    42    2
    41    41    43    2
    42    41    44    1
    43    44    45    1
    44    44    46    1
    45    17    18   ar
    46    18    19   ar
    47     6     1   ar
    48     9     7    1
    49    26    22    1
    50    19    11   ar
    51    12     4    1
    52    36    31    1
    53    19    14   ar
    54    30    23    1
    55    39    40    1
@<TRIPOS>MOLECULE
*****
 48 55 0 0 0
SMALL
GASTEIGER

@<TRIPOS>ATOM
      1 C         141.7416  142.4069  155.0289 C.ar    1  UNL1        0.1384
      2 C         141.6621  140.9369  155.3168 C.ar    1  UNL1        0.0369
      3 C         141.4459  140.4585  156.7219 C.ar    1  UNL1        0.0042
      4 C         141.3093  141.4500  157.8391 C.ar    1  UNL1        0.0117
      5 C         141.3887  142.9199  157.5513 C.ar    1  UNL1       -0.0176
      6 C         141.6049  143.3985  156.1461 C.ar    1  UNL1        0.0327
      7 C         141.2790  144.0681  158.5103 C.3     1  UNL1        0.0330
      8 C         141.1987  145.3471  159.2898 C.3     1  UNL1        0.0157
      9 C         141.0627  144.0298  159.9941 C.3     1  UNL1        0.0938
     10 C         140.9027  142.8339  160.8853 C.3     1  UNL1        0.1148
     11 N         140.9195  141.3810  160.5130 N.ar    1  UNL1       -0.3269
     12 C         141.1004  140.7651  159.1572 C.ar    1  UNL1        0.0555
     13 C         141.0396  139.2745  159.3133 C.ar    1  UNL1       -0.0053
     14 C         140.8210  138.9692  160.7656 C.ar    1  UNL1        0.0132
     15 C         140.6799  137.6738  161.5088 C.ar    1  UNL1        0.0013
     16 C         140.4647  137.6804  162.9932 C.ar    1  UNL1        0.0046
     17 C         140.3905  138.9823  163.7346 C.ar    1  UNL1        0.0563
     18 C         140.5316  140.2776  162.9915 C.ar    1  UNL1        0.0217
     19 C         140.7468  140.2711  161.5069 C.ar    1  UNL1        0.0597
     20 C         140.9021  144.8426  161.2446 C.2     1  UNL1        0.2268
     21 O         139.6300  145.5987  161.4894 O.2     1  UNL1       -0.2748
     22 N         142.0137  144.8992  162.2502 N.am    1  UNL1       -0.2800
     23 C         143.3362  144.1997  162.1428 C.3     1  UNL1        0.0913
     24 C         144.1378  144.5335  163.3661 C.3     1  UNL1        0.0230
     25 C         143.3105  145.4394  164.2293 C.3     1  UNL1        0.0230
     26 C         141.9978  145.6653  163.5397 C.3     1  UNL1        0.0913
     27 C         140.7919  145.7120  162.6326 C.3     1  UNL1        0.0922
     28 N         140.9525  144.8992  161.3821 N.3     1  UNL1       -0.2687
     29 C         139.8410  144.8425  160.3764 C.3     1  UNL1        0.0897
     30 C         142.2247  144.1431  161.1373 C.3     1  UNL1        0.0922
     31 C         141.1737  138.2663  158.2110 C.3     1  UNL1        0.0238
     32 C         142.4948  137.6022  157.9585 C.3     1  UNL1        0.0044
     33 C         142.6290  136.5940  156.8562 C.3     1  UNL1        0.0003
     34 C         141.4420  136.2497  156.0061 C.3     1  UNL1        0.0000
     35 C         140.1209  136.9137  156.2585 C.3     1  UNL1        0.0003
     36 C         139.9867  137.9220  157.3609 C.3     1  UNL1        0.0044
     37 C         140.1753  138.9889  165.2190 C.2     1  UNL1        0.2640
     38 O         139.1985  138.0345  165.8395 O.2     1  UNL1       -0.2686
     39 N         140.9369  139.9498  166.0831 N.am    1  UNL1       -0.1853
     40 H         141.5780  140.5762  165.6758 H       1  UNL1        0.1765
     41 S         140.7217  139.9565  167.5675 S.O2    1  UNL1        0.0545
     42 O         139.4517  140.7323  167.3798 O.2     1  UNL1       -0.1545
     43 O         141.9917  139.1807  167.7552 O.2     1  UNL1       -0.1545
     44 C         140.5065  139.9632  169.0519 C.3     1  UNL1        0.1490
     45 C         139.1801  140.3792  169.6156 C.3     1  UNL1        0.0273
     46 C         141.6176  139.5539  169.9727 C.3     1  UNL1        0.0273
     47 C         143.3009  143.4075  153.2076 C.3     1  UNL1        0.2525
     48 O         141.9577  142.8853  153.6238 O.3     1  UNL1       -0.4714
@<TRIPOS>BOND
     1    47    48    1
     2    48     1    1
     3     1     2   ar
     4     2     3   ar
     5     3     4   ar
     6     4     5   ar
     7     5     6   ar
     8     5     7    1
     9     7     8    1
    10     8     9    1
    11     9    20    1
    12    20    21    2
    13    20    22   am
    14    22    23    1
    15    23    24    1
    16    24    25    1
    17    25    26    1
    18    26    27    1
    19    27    28    1
    20    28    29    1
    21    28    30    1
    22     9    10    1
    23    10    11    1
    24    11    12   ar
    25    12    13   ar
    26    13    31    1
    27    31    32    1
    28    32    33    1
    29    33    34    1
    30    34    35    1
    31    35    36    1
    32    13    14   ar
    33    14    15   ar
    34    15    16   ar
    35    16    17   ar
    36    17    37    1
    37    37    38    2
    38    37    39   am
    39    39    41    1
    40    41    42    2
    41    41    43    2
    42    41    44    1
    43    44    45    1
    44    44    46    1
    45    17    18   ar
    46    18    19   ar
    47     6     1   ar
    48     9     7    1
    49    26    22    1
    50    19    11   ar
    51    12     4    1
    52    36    31    1
    53    19    14   ar
    54    30    23    1
    55    39    40    1
@<TRIPOS>MOLECULE
*****
 48 55 0 0 0
SMALL
GASTEIGER

@<TRIPOS>ATOM
      1 C         140.5125  143.7068  163.6014 C.ar    1  UNL1        0.1384
      2 C         141.1890  142.4437  164.0450 C.ar    1  UNL1        0.0369
      3 C         141.5134  141.3750  163.0436 C.ar    1  UNL1        0.0042
      4 C         141.1613  141.5695  161.5986 C.ar    1  UNL1        0.0117
      5 C         140.4848  142.8326  161.1549 C.ar    1  UNL1       -0.0176
      6 C         140.1604  143.9013  162.1563 C.ar    1  UNL1        0.0327
      7 C         140.0505  143.2257  159.7740 C.3     1  UNL1        0.0330
      8 C         139.5437  143.8083  158.4881 C.3     1  UNL1        0.0157
      9 C         140.1854  142.4525  158.4957 C.3     1  UNL1        0.0938
     10 C         140.7880  141.0955  158.2826 C.3     1  UNL1        0.1148
     11 N         141.4044  140.1764  159.2951 N.ar    1  UNL1       -0.3269
     12 C         141.5706  140.3874  160.7709 C.ar    1  UNL1        0.0555
     13 C         142.2458  139.1746  161.3394 C.ar    1  UNL1       -0.0053
     14 C         142.4969  138.2141  160.2150 C.ar    1  UNL1        0.0132
     15 C         143.1320  136.8556  160.1783 C.ar    1  UNL1        0.0013
     16 C         143.2470  136.1163  158.8782 C.ar    1  UNL1        0.0046
     17 C         142.7270  136.7355  157.6148 C.ar    1  UNL1        0.0563
     18 C         142.0920  138.0939  157.6514 C.ar    1  UNL1        0.0217
     19 C         141.9769  138.8333  158.9516 C.ar    1  UNL1        0.0597
     20 C         139.9233  142.4442  157.0187 C.2     1  UNL1        0.2268
     21 O         140.9722  142.9403  156.0681 O.2     1  UNL1       -0.2748
     22 N         138.6123  141.9398  156.4925 N.am    1  UNL1       -0.2800
     23 C         137.4743  141.4154  157.3171 C.3     1  UNL1        0.0913
     24 C         136.3679  141.0227  156.3834 C.3     1  UNL1        0.0230
     25 C         136.8222  141.3044  154.9819 C.3     1  UNL1        0.0230
     26 C         138.2093  141.8711  155.0493 C.3     1  UNL1        0.0913
     27 C         139.5721  142.4077  155.4157 C.3     1  UNL1        0.0922
     28 N         139.8341  142.4160  156.8927 N.3     1  UNL1       -0.2687
     29 C         141.1451  142.9204  157.4190 C.3     1  UNL1        0.0897
     30 C         138.7853  141.9199  157.8433 C.3     1  UNL1        0.0922
     31 C         142.6065  138.9600  162.7794 C.3     1  UNL1        0.0238
     32 C         141.6524  138.2504  163.6939 C.3     1  UNL1        0.0044
     33 C         142.0130  138.0358  165.1339 C.3     1  UNL1        0.0003
     34 C         143.3279  138.5306  165.6596 C.3     1  UNL1        0.0000
     35 C         144.2820  139.2401  164.7451 C.3     1  UNL1        0.0003
     36 C         143.9213  139.4548  163.3051 C.3     1  UNL1        0.0044
     37 C         142.8420  135.9963  156.3147 C.2     1  UNL1        0.2640
     38 O         144.0698  136.1550  155.4678 O.2     1  UNL1       -0.2686
     39 N         141.7292  135.0983  155.8615 N.am    1  UNL1       -0.1853
     40 H         140.9234  134.9942  156.4174 H       1  UNL1        0.1765
     41 S         141.8441  134.3590  154.5614 S.O2    1  UNL1        0.0545
     42 O         141.1591  135.4922  153.8566 O.2     1  UNL1       -0.1545
     43 O         142.5291  133.2259  155.2662 O.2     1  UNL1       -0.1545
     44 C         141.9590  133.6198  153.2613 C.3     1  UNL1        0.1490
     45 C         141.5400  134.2822  151.9824 C.3     1  UNL1        0.0273
     46 C         142.4929  132.2182  153.2402 C.3     1  UNL1        0.0273
     47 C         138.8468  144.7921  165.2739 C.3     1  UNL1        0.2525
     48 O         140.1882  144.7754  164.6028 O.3     1  UNL1       -0.4714
@<TRIPOS>BOND
     1    47    48    1
     2    48     1    1
     3     1     2   ar
     4     2     3   ar
     5     3     4   ar
     6     4     5   ar
     7     5     6   ar
     8     5     7    1
     9     7     8    1
    10     8     9    1
    11     9    20    1
    12    20    21    2
    13    20    22   am
    14    22    23    1
    15    23    24    1
    16    24    25    1
    17    25    26    1
    18    26    27    1
    19    27    28    1
    20    28    29    1
    21    28    30    1
    22     9    10    1
    23    10    11    1
    24    11    12   ar
    25    12    13   ar
    26    13    31    1
    27    31    32    1
    28    32    33    1
    29    33    34    1
    30    34    35    1
    31    35    36    1
    32    13    14   ar
    33    14    15   ar
    34    15    16   ar
    35    16    17   ar
    36    17    37    1
    37    37    38    2
    38    37    39   am
    39    39    41    1
    40    41    42    2
    41    41    43    2
    42    41    44    1
    43    44    45    1
    44    44    46    1
    45    17    18   ar
    46    18    19   ar
    47     6     1   ar
    48     9     7    1
    49    26    22    1
    50    19    11   ar
    51    12     4    1
    52    36    31    1
    53    19    14   ar
    54    30    23    1
    55    39    40    1
@<TRIPOS>MOLECULE
*****
 48 55 0 0 0
SMALL
GASTEIGER

@<TRIPOS>ATOM
      1 C         140.5610  141.5064  153.9105 C.ar    1  UNL1        0.1384
      2 C         141.1773  140.1875  154.2721 C.ar    1  UNL1        0.0369
      3 C         141.5695  139.9071  155.6925 C.ar    1  UNL1        0.0042
      4 C         141.3453  140.9455  156.7514 C.ar    1  UNL1        0.0117
      5 C         140.7290  142.2644  156.3899 C.ar    1  UNL1       -0.0176
      6 C         140.3368  142.5449  154.9695 C.ar    1  UNL1        0.0327
      7 C         140.4205  143.4290  157.2836 C.3     1  UNL1        0.0330
      8 C         140.0346  144.6934  157.9923 C.3     1  UNL1        0.0157
      9 C         140.6521  143.5622  158.7596 C.3     1  UNL1        0.0938
     10 C         141.2495  142.5638  159.7064 C.3     1  UNL1        0.1148
     11 N         141.7628  141.1856  159.4111 N.ar    1  UNL1       -0.3269
     12 C         141.8054  140.4654  158.0960 C.ar    1  UNL1        0.0555
     13 C         142.4105  139.1127  158.3277 C.ar    1  UNL1       -0.0053
     14 C         142.7419  138.9968  159.7860 C.ar    1  UNL1        0.0132
     15 C         143.3565  137.8901  160.5908 C.ar    1  UNL1        0.0013
     16 C         143.5708  138.0647  162.0651 C.ar    1  UNL1        0.0046
     17 C         143.1704  139.3459  162.7347 C.ar    1  UNL1        0.0563
     18 C         142.5558  140.4525  161.9299 C.ar    1  UNL1        0.0217
     19 C         142.3415  140.2780  160.4556 C.ar    1  UNL1        0.0597
     20 C         140.5172  144.4515  159.9601 C.2     1  UNL1        0.2268
     21 O         141.4141  145.6439  160.1147 O.2     1  UNL1       -0.2748
     22 N         139.4855  144.1483  161.0058 N.am    1  UNL1       -0.2800
     23 C         138.5232  142.9978  160.9875 C.3     1  UNL1        0.0913
     24 C         137.6779  143.0810  162.2240 C.3     1  UNL1        0.0230
     25 C         138.1178  144.2828  163.0063 C.3     1  UNL1        0.0230
     26 C         139.2349  144.9424  162.2535 C.3     1  UNL1        0.0913
     27 C         140.3168  145.3827  161.2969 C.3     1  UNL1        0.0922
     28 N         140.4518  144.4934  160.0965 N.3     1  UNL1       -0.2687
     29 C         141.4835  144.7965  159.0507 C.3     1  UNL1        0.0897
     30 C         139.5549  143.3010  159.9418 C.3     1  UNL1        0.0922
     31 C         142.6434  138.0605  157.2843 C.3     1  UNL1        0.0238
     32 C         141.6658  136.9341  157.1238 C.3     1  UNL1        0.0044
     33 C         141.8987  135.8819  156.0805 C.3     1  UNL1        0.0003
     34 C         143.1091  135.9560  155.1977 C.3     1  UNL1        0.0000
     35 C         144.0867  137.0823  155.3582 C.3     1  UNL1        0.0003
     36 C         143.8538  138.1345  156.4015 C.3     1  UNL1        0.0044
     37 C         143.3846  139.5204  164.2090 C.2     1  UNL1        0.2640
     38 O         144.6065  138.9460  164.8625 O.2     1  UNL1       -0.2686
     39 N         142.3770  140.2694  165.0298 N.am    1  UNL1       -0.1853
     40 H         141.5751  140.6465  164.6009 H       1  UNL1        0.1765
     41 S         142.5912  140.4441  166.5041 S.O2    1  UNL1        0.0545
     42 O         141.8591  139.1605  166.7624 O.2     1  UNL1       -0.1545
     43 O         143.3232  141.7276  166.2459 O.2     1  UNL1       -0.1545
     44 C         142.8053  140.6186  167.9784 C.3     1  UNL1        0.1490
     45 C         143.1799  141.9631  168.5279 C.3     1  UNL1        0.0273
     46 C         142.6447  139.4486  168.9033 C.3     1  UNL1        0.0273
     47 C         138.8918  142.5159  152.1946 C.3     1  UNL1        0.2525
     48 O         140.1689  141.7867  152.4902 O.3     1  UNL1       -0.4714
@<TRIPOS>BOND
     1    47    48    1
     2    48     1    1
     3     1     2   ar
     4     2     3   ar
     5     3     4   ar
     6     4     5   ar
     7     5     6   ar
     8     5     7    1
     9     7     8    1
    10     8     9    1
    11     9    20    1
    12    20    21    2
    13    20    22   am
    14    22    23    1
    15    23    24    1
    16    24    25    1
    17    25    26    1
    18    26    27    1
    19    27    28    1
    20    28    29    1
    21    28    30    1
    22     9    10    1
    23    10    11    1
    24    11    12   ar
    25    12    13   ar
    26    13    31    1
    27    31    32    1
    28    32    33    1
    29    33    34    1
    30    34    35    1
    31    35    36    1
    32    13    14   ar
    33    14    15   ar
    34    15    16   ar
    35    16    17   ar
    36    17    37    1
    37    37    38    2
    38    37    39   am
    39    39    41    1
    40    41    42    2
    41    41    43    2
    42    41    44    1
    43    44    45    1
    44    44    46    1
    45    17    18   ar
    46    18    19   ar
    47     6     1   ar
    48     9     7    1
    49    26    22    1
    50    19    11   ar
    51    12     4    1
    52    36    31    1
    53    19    14   ar
    54    30    23    1
    55    39    40    1
@<TRIPOS>MOLECULE
*****
 48 55 0 0 0
SMALL
GASTEIGER

@<TRIPOS>ATOM
      1 C         138.5565  145.5380  155.2562 C.ar    1  UNL1        0.1384
      2 C         137.5767  144.4208  155.0520 C.ar    1  UNL1        0.0369
      3 C         138.0478  142.9968  155.0725 C.ar    1  UNL1        0.0042
      4 C         139.4988  142.6901  155.2973 C.ar    1  UNL1        0.0117
      5 C         140.4787  143.8073  155.5015 C.ar    1  UNL1       -0.0176
      6 C         140.0076  145.2313  155.4810 C.ar    1  UNL1        0.0327
      7 C         141.9573  143.7227  155.7396 C.3     1  UNL1        0.0330
      8 C         143.4303  143.8620  155.9857 C.3     1  UNL1        0.0157
      9 C         142.8211  142.5000  155.8323 C.3     1  UNL1        0.0938
     10 C         142.4198  141.0598  155.7097 C.3     1  UNL1        0.1148
     11 N         141.0555  140.4867  155.4643 N.ar    1  UNL1       -0.3269
     12 C         139.7555  141.2123  155.2807 C.ar    1  UNL1        0.0555
     13 C         138.6801  140.1892  155.0646 C.ar    1  UNL1       -0.0053
     14 C         139.3155  138.8314  155.1146 C.ar    1  UNL1        0.0132
     15 C         138.7469  137.4511  154.9671 C.ar    1  UNL1        0.0013
     16 C         139.6463  136.2548  155.0666 C.ar    1  UNL1        0.0046
     17 C         141.1144  136.4388  155.3136 C.ar    1  UNL1        0.0563
     18 C         141.6830  137.8189  155.4611 C.ar    1  UNL1        0.0217
     19 C         140.7835  139.0153  155.3616 C.ar    1  UNL1        0.0597
     20 C         144.2122  141.9780  156.0387 C.2     1  UNL1        0.2268
     21 O         144.6788  141.6111  157.4163 O.2     1  UNL1       -0.2748
     22 N         145.1365  141.8229  154.8676 N.am    1  UNL1       -0.2800
     23 C         144.8122  142.1470  153.4394 C.3     1  UNL1        0.0913
     24 C         146.0228  141.8409  152.6082 C.3     1  UNL1        0.0230
     25 C         147.0953  141.3277  153.5228 C.3     1  UNL1        0.0230
     26 C         146.5475  141.3166  154.9191 C.3     1  UNL1        0.0913
     27 C         145.7455  141.4131  156.1945 C.3     1  UNL1        0.0922
     28 N         144.3544  141.9351  155.9881 N.3     1  UNL1       -0.2687
     29 C         143.4300  142.0902  157.1592 C.3     1  UNL1        0.0897
     30 C         143.8878  142.3020  154.6105 C.3     1  UNL1        0.0922
     31 C         137.2249  140.4739  154.8383 C.3     1  UNL1        0.0238
     32 C         136.6826  140.5429  153.4414 C.3     1  UNL1        0.0044
     33 C         135.2275  140.8276  153.2150 C.3     1  UNL1        0.0003
     34 C         134.3144  141.0432  154.3855 C.3     1  UNL1        0.0000
     35 C         134.8567  140.9742  155.7823 C.3     1  UNL1        0.0003
     36 C         136.3120  140.6896  156.0087 C.3     1  UNL1        0.0044
     37 C         142.0139  135.2425  155.4131 C.2     1  UNL1        0.2640
     38 O         143.4930  135.3981  155.2186 O.2     1  UNL1       -0.2686
     39 N         141.4342  133.8906  155.7072 N.am    1  UNL1       -0.1853
     40 H         140.4634  133.7885  155.8349 H       1  UNL1        0.1765
     41 S         142.3336  132.6944  155.8067 S.O2    1  UNL1        0.0545
     42 O         142.0349  132.3510  154.3774 O.2     1  UNL1       -0.1545
     43 O         142.6323  133.0377  157.2360 O.2     1  UNL1       -0.1545
     44 C         143.2330  131.4980  155.9061 C.3     1  UNL1        0.1490
     45 C         142.6473  130.1171  155.9027 C.3     1  UNL1        0.0273
     46 C         144.7180  131.6827  156.0091 C.3     1  UNL1        0.0273
     47 C         139.0827  148.0812  155.1854 C.3     1  UNL1        0.2525
     48 O         138.0854  146.9619  155.2357 O.3     1  UNL1       -0.4714
@<TRIPOS>BOND
     1    47    48    1
     2    48     1    1
     3     1     2   ar
     4     2     3   ar
     5     3     4   ar
     6     4     5   ar
     7     5     6   ar
     8     5     7    1
     9     7     8    1
    10     8     9    1
    11     9    20    1
    12    20    21    2
    13    20    22   am
    14    22    23    1
    15    23    24    1
    16    24    25    1
    17    25    26    1
    18    26    27    1
    19    27    28    1
    20    28    29    1
    21    28    30    1
    22     9    10    1
    23    10    11    1
    24    11    12   ar
    25    12    13   ar
    26    13    31    1
    27    31    32    1
    28    32    33    1
    29    33    34    1
    30    34    35    1
    31    35    36    1
    32    13    14   ar
    33    14    15   ar
    34    15    16   ar
    35    16    17   ar
    36    17    37    1
    37    37    38    2
    38    37    39   am
    39    39    41    1
    40    41    42    2
    41    41    43    2
    42    41    44    1
    43    44    45    1
    44    44    46    1
    45    17    18   ar
    46    18    19   ar
    47     6     1   ar
    48     9     7    1
    49    26    22    1
    50    19    11   ar
    51    12     4    1
    52    36    31    1
    53    19    14   ar
    54    30    23    1
    55    39    40    1
@<TRIPOS>MOLECULE
*****
 48 55 0 0 0
SMALL
GASTEIGER

@<TRIPOS>ATOM
      1 C         145.0179  142.5111  157.6341 C.ar    1  UNL1        0.1384
      2 C         144.4180  142.8661  156.3059 C.ar    1  UNL1        0.0369
      3 C         142.9725  142.5721  156.0332 C.ar    1  UNL1        0.0042
      4 C         142.1271  141.9232  157.0885 C.ar    1  UNL1        0.0117
      5 C         142.7269  141.5681  158.4167 C.ar    1  UNL1       -0.0176
      6 C         144.1723  141.8621  158.6896 C.ar    1  UNL1        0.0327
      7 C         142.0669  140.9211  159.5982 C.3     1  UNL1        0.0330
      8 C         141.6070  140.2905  160.8791 C.3     1  UNL1        0.0157
      9 C         140.6439  140.4693  159.7431 C.3     1  UNL1        0.0938
     10 C         139.5296  140.5530  158.7425 C.3     1  UNL1        0.1148
     11 N         139.5629  141.1090  157.3498 N.ar    1  UNL1       -0.3269
     12 C         140.7189  141.7188  156.6137 C.ar    1  UNL1        0.0555
     13 C         140.2401  142.1212  155.2504 C.ar    1  UNL1       -0.0053
     14 C         138.7881  141.7601  155.1439 C.ar    1  UNL1        0.0132
     15 C         137.7928  141.9201  154.0329 C.ar    1  UNL1        0.0013
     16 C         136.3792  141.4546  154.2196 C.ar    1  UNL1        0.0046
     17 C         135.9607  140.8290  155.5171 C.ar    1  UNL1        0.0563
     18 C         136.9559  140.6690  156.6280 C.ar    1  UNL1        0.0217
     19 C         138.3696  141.1346  156.4414 C.ar    1  UNL1        0.0597
     20 C         139.6318  139.8328  160.6490 C.2     1  UNL1        0.2268
     21 O         139.4477  138.3441  160.6392 O.2     1  UNL1       -0.2748
     22 N         138.8039  140.6849  161.5646 N.am    1  UNL1       -0.2800
     23 C         138.8759  142.1784  161.6842 C.3     1  UNL1        0.0913
     24 C         137.8750  142.6096  162.7150 C.3     1  UNL1        0.0230
     25 C         137.1844  141.3826  163.2323 C.3     1  UNL1        0.0230
     26 C         137.7585  140.1932  162.5213 C.3     1  UNL1        0.0913
     27 C         138.5077  139.2011  161.6647 C.3     1  UNL1        0.0922
     28 N         139.5198  139.8376  160.7589 N.3     1  UNL1       -0.2687
     29 C         140.3478  138.9855  159.8432 C.3     1  UNL1        0.0897
     30 C         139.7039  141.3262  160.7686 C.3     1  UNL1        0.0922
     31 C         141.0678  142.7707  154.1813 C.3     1  UNL1        0.0238
     32 C         141.1777  144.2655  154.1222 C.3     1  UNL1        0.0044
     33 C         142.0053  144.9150  153.0531 C.3     1  UNL1        0.0003
     34 C         142.7231  144.0697  152.0430 C.3     1  UNL1        0.0000
     35 C         142.6132  142.5750  152.1020 C.3     1  UNL1        0.0003
     36 C         141.7855  141.9254  153.1712 C.3     1  UNL1        0.0044
     37 C         134.5471  140.3634  155.7038 C.2     1  UNL1        0.2640
     38 O         134.2375  138.8959  155.7258 O.2     1  UNL1       -0.2686
     39 N         133.4430  141.3654  155.8686 N.am    1  UNL1       -0.1853
     40 H         133.6462  142.3286  155.8542 H       1  UNL1        0.1765
     41 S         132.0294  140.8999  156.0552 S.O2    1  UNL1        0.0545
     42 O         131.6471  141.5391  154.7531 O.2     1  UNL1       -0.1545
     43 O         132.4117  140.2608  157.3573 O.2     1  UNL1       -0.1545
     44 C         130.6157  140.4345  156.2418 C.3     1  UNL1        0.1490
     45 C         130.3388  139.1440  156.9546 C.3     1  UNL1        0.0273
     46 C         129.4789  141.2595  155.7156 C.3     1  UNL1        0.0273
     47 C         147.4800  142.6450  156.8158 C.3     1  UNL1        0.2525
     48 O         146.4632  142.8051  157.9069 O.3     1  UNL1       -0.4714
@<TRIPOS>BOND
     1    47    48    1
     2    48     1    1
     3     1     2   ar
     4     2     3   ar
     5     3     4   ar
     6     4     5   ar
     7     5     6   ar
     8     5     7    1
     9     7     8    1
    10     8     9    1
    11     9    20    1
    12    20    21    2
    13    20    22   am
    14    22    23    1
    15    23    24    1
    16    24    25    1
    17    25    26    1
    18    26    27    1
    19    27    28    1
    20    28    29    1
    21    28    30    1
    22     9    10    1
    23    10    11    1
    24    11    12   ar
    25    12    13   ar
    26    13    31    1
    27    31    32    1
    28    32    33    1
    29    33    34    1
    30    34    35    1
    31    35    36    1
    32    13    14   ar
    33    14    15   ar
    34    15    16   ar
    35    16    17   ar
    36    17    37    1
    37    37    38    2
    38    37    39   am
    39    39    41    1
    40    41    42    2
    41    41    43    2
    42    41    44    1
    43    44    45    1
    44    44    46    1
    45    17    18   ar
    46    18    19   ar
    47     6     1   ar
    48     9     7    1
    49    26    22    1
    50    19    11   ar
    51    12     4    1
    52    36    31    1
    53    19    14   ar
    54    30    23    1
    55    39    40    1
@<TRIPOS>MOLECULE
*****
 48 55 0 0 0
SMALL
GASTEIGER

@<TRIPOS>ATOM
      1 C         139.9680  142.9280  155.8830 C.ar    1  UNL1        0.1384
      2 C         140.2858  141.4664  155.9951 C.ar    1  UNL1        0.0369
      3 C         140.5941  140.8665  157.3349 C.ar    1  UNL1        0.0042
      4 C         140.5846  141.7282  158.5626 C.ar    1  UNL1        0.0117
      5 C         140.2668  143.1898  158.4506 C.ar    1  UNL1       -0.0176
      6 C         139.9585  143.7898  157.1107 C.ar    1  UNL1        0.0327
      7 C         140.2035  144.2194  159.5396 C.3     1  UNL1        0.0330
      8 C         140.0878  145.3937  160.4657 C.3     1  UNL1        0.0157
      9 C         140.4423  144.0415  161.0097 C.3     1  UNL1        0.0938
     10 C         140.8035  142.7902  161.7539 C.3     1  UNL1        0.1148
     11 N         141.0151  141.4077  161.2117 N.ar    1  UNL1       -0.3269
     12 C         140.9176  140.9351  159.7914 C.ar    1  UNL1        0.0555
     13 C         141.2187  139.4658  159.7702 C.ar    1  UNL1       -0.0053
     14 C         141.5022  139.0304  161.1773 C.ar    1  UNL1        0.0132
     15 C         141.8587  137.6959  161.7625 C.ar    1  UNL1        0.0013
     16 C         142.0894  137.5618  163.2386 C.ar    1  UNL1        0.0046
     17 C         141.9635  138.7620  164.1295 C.ar    1  UNL1        0.0563
     18 C         141.6070  140.0963  163.5443 C.ar    1  UNL1        0.0217
     19 C         141.3763  140.2306  162.0682 C.ar    1  UNL1        0.0597
     20 C         140.4868  144.7163  162.3487 C.2     1  UNL1        0.2268
     21 O         141.6701  145.5575  162.7257 O.2     1  UNL1       -0.2748
     22 N         139.3479  144.5497  163.3106 N.am    1  UNL1       -0.2800
     23 C         138.1051  143.7438  163.0744 C.3     1  UNL1        0.0913
     24 C         137.2410  143.8560  164.2955 C.3     1  UNL1        0.0230
     25 C         137.9499  144.7312  165.2862 C.3     1  UNL1        0.0230
     26 C         139.2520  145.1600  164.6775 C.3     1  UNL1        0.0913
     27 C         140.4717  145.4263  163.8286 C.3     1  UNL1        0.0922
     28 N         140.4272  144.7515  162.4896 N.3     1  UNL1       -0.2687
     29 C         141.5661  144.9180  161.5276 C.3     1  UNL1        0.0897
     30 C         139.2439  143.9103  162.1126 C.3     1  UNL1        0.0922
     31 C         141.2336  138.5863  158.5552 C.3     1  UNL1        0.0238
     32 C         142.5399  138.1745  157.9434 C.3     1  UNL1        0.0044
     33 C         142.5549  137.2951  156.7285 C.3     1  UNL1        0.0003
     34 C         141.2637  136.8273  156.1252 C.3     1  UNL1        0.0000
     35 C         139.9575  137.2390  156.7369 C.3     1  UNL1        0.0003
     36 C         139.9425  138.1185  157.9519 C.3     1  UNL1        0.0044
     37 C         142.1942  138.6279  165.6055 C.2     1  UNL1        0.2640
     38 O         143.0070  137.4846  166.1368 O.2     1  UNL1       -0.2686
     39 N         141.6120  139.6370  166.5504 N.am    1  UNL1       -0.1853
     40 H         141.0785  140.3874  166.2017 H       1  UNL1        0.1765
     41 S         141.8426  139.5030  168.0265 S.O2    1  UNL1        0.0545
     42 O         143.3214  139.6253  167.8065 O.2     1  UNL1       -0.1545
     43 O         140.3639  139.3807  168.2465 O.2     1  UNL1       -0.1545
     44 C         142.0733  139.3690  169.5025 C.3     1  UNL1        0.1490
     45 C         141.4258  140.3317  170.4533 C.3     1  UNL1        0.0273
     46 C         142.9515  138.2723  170.0278 C.3     1  UNL1        0.0273
     47 C         140.2951  144.8249  154.1381 C.3     1  UNL1        0.2525
     48 O         139.6597  143.5279  154.5432 O.3     1  UNL1       -0.4714
@<TRIPOS>BOND
     1    47    48    1
     2    48     1    1
     3     1     2   ar
     4     2     3   ar
     5     3     4   ar
     6     4     5   ar
     7     5     6   ar
     8     5     7    1
     9     7     8    1
    10     8     9    1
    11     9    20    1
    12    20    21    2
    13    20    22   am
    14    22    23    1
    15    23    24    1
    16    24    25    1
    17    25    26    1
    18    26    27    1
    19    27    28    1
    20    28    29    1
    21    28    30    1
    22     9    10    1
    23    10    11    1
    24    11    12   ar
    25    12    13   ar
    26    13    31    1
    27    31    32    1
    28    32    33    1
    29    33    34    1
    30    34    35    1
    31    35    36    1
    32    13    14   ar
    33    14    15   ar
    34    15    16   ar
    35    16    17   ar
    36    17    37    1
    37    37    38    2
    38    37    39   am
    39    39    41    1
    40    41    42    2
    41    41    43    2
    42    41    44    1
    43    44    45    1
    44    44    46    1
    45    17    18   ar
    46    18    19   ar
    47     6     1   ar
    48     9     7    1
    49    26    22    1
    50    19    11   ar
    51    12     4    1
    52    36    31    1
    53    19    14   ar
    54    30    23    1
    55    39    40    1
@<TRIPOS>MOLECULE
*****
 48 55 0 0 0
SMALL
GASTEIGER

@<TRIPOS>ATOM
      1 C         143.0267  143.7349  154.2169 C.ar    1  UNL1        0.1384
      2 C         142.9021  142.2402  154.2321 C.ar    1  UNL1        0.0369
      3 C         142.4043  141.5415  155.4627 C.ar    1  UNL1        0.0042
      4 C         142.0312  142.3376  156.6779 C.ar    1  UNL1        0.0117
      5 C         142.1558  143.8323  156.6628 C.ar    1  UNL1       -0.0176
      6 C         142.6535  144.5310  155.4323 C.ar    1  UNL1        0.0327
      7 C         141.8403  144.8084  157.7573 C.3     1  UNL1        0.0330
      8 C         141.5897  145.9423  158.7066 C.3     1  UNL1        0.0157
      9 C         141.3224  144.5306  159.1374 C.3     1  UNL1        0.0938
     10 C         140.9920  143.2083  159.7637 C.3     1  UNL1        0.1148
     11 N         141.0978  141.8371  159.1648 N.ar    1  UNL1       -0.3269
     12 C         141.5603  141.4497  157.7915 C.ar    1  UNL1        0.0555
     13 C         141.4813  139.9559  157.6800 C.ar    1  UNL1       -0.0053
     14 C         140.9700  139.4203  158.9844 C.ar    1  UNL1        0.0132
     15 C         140.6895  138.0239  159.4553 C.ar    1  UNL1        0.0013
     16 C         140.1721  137.7902  160.8437 C.ar    1  UNL1        0.0046
     17 C         139.9351  138.9529  161.7613 C.ar    1  UNL1        0.0563
     18 C         140.2155  140.3492  161.2905 C.ar    1  UNL1        0.0217
     19 C         140.7330  140.5829  159.9020 C.ar    1  UNL1        0.0597
     20 C         140.8999  145.1291  160.4464 C.2     1  UNL1        0.2268
     21 O         139.6037  145.8775  160.5452 O.2     1  UNL1       -0.2748
     22 N         141.7736  144.9792  161.6564 N.am    1  UNL1       -0.2800
     23 C         143.0899  144.2619  161.7100 C.3     1  UNL1        0.0913
     24 C         143.6141  144.3597  163.1121 C.3     1  UNL1        0.0230
     25 C         142.6218  145.1373  163.9249 C.3     1  UNL1        0.0230
     26 C         141.4843  145.5201  163.0252 C.3     1  UNL1        0.0913
     27 C         140.4974  145.7588  161.9078 C.3     1  UNL1        0.0922
     28 N         140.9200  145.1603  160.5989 N.3     1  UNL1       -0.2687
     29 C         140.0463  145.3102  159.3888 C.3     1  UNL1        0.0897
     30 C         142.2162  144.4119  160.5000 C.3     1  UNL1        0.0922
     31 C         141.8490  139.1410  156.4757 C.3     1  UNL1        0.0238
     32 C         140.8167  138.8409  155.4294 C.3     1  UNL1        0.0044
     33 C         141.1844  138.0260  154.2251 C.3     1  UNL1        0.0003
     34 C         142.5843  137.5109  154.0668 C.3     1  UNL1        0.0000
     35 C         143.6165  137.8109  155.1130 C.3     1  UNL1        0.0003
     36 C         143.2489  138.6260  156.3174 C.3     1  UNL1        0.0044
     37 C         139.4177  138.7193  163.1497 C.2     1  UNL1        0.2640
     38 O         138.6406  137.4746  163.4609 O.2     1  UNL1       -0.2686
     39 N         139.6773  139.7304  164.2269 N.am    1  UNL1       -0.1853
     40 H         140.1873  140.5473  164.0226 H       1  UNL1        0.1765
     41 S         139.1599  139.4969  165.6153 S.O2    1  UNL1        0.0545
     42 O         140.4614  138.8530  165.9919 O.2     1  UNL1       -0.1545
     43 O         137.8585  140.1407  165.2387 O.2     1  UNL1       -0.1545
     44 C         138.6426  139.2633  167.0037 C.3     1  UNL1        0.1490
     45 C         139.2866  139.9528  168.1699 C.3     1  UNL1        0.0273
     46 C         137.4814  138.3402  167.2260 C.3     1  UNL1        0.0273
     47 C         143.0650  145.8277  152.6779 C.3     1  UNL1        0.2525
     48 O         143.5244  144.4335  152.9865 O.3     1  UNL1       -0.4714
@<TRIPOS>BOND
     1    47    48    1
     2    48     1    1
     3     1     2   ar
     4     2     3   ar
     5     3     4   ar
     6     4     5   ar
     7     5     6   ar
     8     5     7    1
     9     7     8    1
    10     8     9    1
    11     9    20    1
    12    20    21    2
    13    20    22   am
    14    22    23    1
    15    23    24    1
    16    24    25    1
    17    25    26    1
    18    26    27    1
    19    27    28    1
    20    28    29    1
    21    28    30    1
    22     9    10    1
    23    10    11    1
    24    11    12   ar
    25    12    13   ar
    26    13    31    1
    27    31    32    1
    28    32    33    1
    29    33    34    1
    30    34    35    1
    31    35    36    1
    32    13    14   ar
    33    14    15   ar
    34    15    16   ar
    35    16    17   ar
    36    17    37    1
    37    37    38    2
    38    37    39   am
    39    39    41    1
    40    41    42    2
    41    41    43    2
    42    41    44    1
    43    44    45    1
    44    44    46    1
    45    17    18   ar
    46    18    19   ar
    47     6     1   ar
    48     9     7    1
    49    26    22    1
    50    19    11   ar
    51    12     4    1
    52    36    31    1
    53    19    14   ar
    54    30    23    1
    55    39    40    1
@<TRIPOS>MOLECULE
*****
 48 55 0 0 0
SMALL
GASTEIGER

@<TRIPOS>ATOM
      1 C         139.2973  139.8788  154.4748 C.ar    1  UNL1        0.1384
      2 C         140.4536  138.9650  154.7542 C.ar    1  UNL1        0.0369
      3 C         141.0318  138.8881  156.1361 C.ar    1  UNL1        0.0042
      4 C         140.4539  139.7249  157.2386 C.ar    1  UNL1        0.0117
      5 C         139.2977  140.6387  156.9593 C.ar    1  UNL1       -0.0176
      6 C         138.7194  140.7157  155.5774 C.ar    1  UNL1        0.0327
      7 C         138.5769  141.5516  157.9065 C.3     1  UNL1        0.0330
      8 C         137.7295  142.5199  158.6774 C.3     1  UNL1        0.0157
      9 C         138.8344  141.7760  159.3671 C.3     1  UNL1        0.0938
     10 C         139.8762  141.1430  160.2412 C.3     1  UNL1        0.1148
     11 N         140.9179  140.1293  159.8706 N.ar    1  UNL1       -0.3269
     12 C         141.1750  139.4982  158.5343 C.ar    1  UNL1        0.0555
     13 C         142.3265  138.5487  158.6839 C.ar    1  UNL1       -0.0053
     14 C         142.7811  138.5930  160.1126 C.ar    1  UNL1        0.0132
     15 C         143.8754  137.8700  160.8407 C.ar    1  UNL1        0.0013
     16 C         144.0990  138.1239  162.3020 C.ar    1  UNL1        0.0046
     17 C         143.2284  139.1007  163.0354 C.ar    1  UNL1        0.0563
     18 C         142.1342  139.8237  162.3074 C.ar    1  UNL1        0.0217
     19 C         141.9105  139.5699  160.8460 C.ar    1  UNL1        0.0597
     20 C         138.4122  142.5183  160.6004 C.2     1  UNL1        0.2268
     21 O         137.3564  141.9431  161.4973 O.2     1  UNL1       -0.2748
     22 N         139.0457  143.8357  160.9365 N.am    1  UNL1       -0.2800
     23 C         140.1085  144.5319  160.1391 C.3     1  UNL1        0.0913
     24 C         140.4473  145.8148  160.8390 C.3     1  UNL1        0.0230
     25 C         139.5939  145.9112  162.0689 C.3     1  UNL1        0.0230
     26 C         138.7278  144.6881  162.1291 C.3     1  UNL1        0.0913
     27 C         137.9969  143.3817  161.9332 C.3     1  UNL1        0.0922
     28 N         138.4191  142.6394  160.7000 N.3     1  UNL1       -0.2687
     29 C         137.7856  141.3219  160.3637 C.3     1  UNL1        0.0897
     30 C         139.4749  143.2145  159.8030 C.3     1  UNL1        0.0922
     31 C         142.9194  137.7034  157.5959 C.3     1  UNL1        0.0238
     32 C         143.7571  138.3378  156.5254 C.3     1  UNL1        0.0044
     33 C         144.3500  137.4926  155.4375 C.3     1  UNL1        0.0003
     34 C         144.1052  136.0127  155.4198 C.3     1  UNL1        0.0000
     35 C         143.2676  135.3783  156.4901 C.3     1  UNL1        0.0003
     36 C         142.6746  136.2236  157.5782 C.3     1  UNL1        0.0044
     37 C         143.4520  139.3546  164.4967 C.2     1  UNL1        0.2640
     38 O         144.6900  138.8370  165.1670 O.2     1  UNL1       -0.2686
     39 N         142.4377  140.1262  165.2878 N.am    1  UNL1       -0.1853
     40 H         141.6251  140.4660  164.8478 H       1  UNL1        0.1765
     41 S         142.6612  140.3802  166.7491 S.O2    1  UNL1        0.0545
     42 O         141.9902  139.0794  167.0777 O.2     1  UNL1       -0.1545
     43 O         143.3322  141.6808  166.4205 O.2     1  UNL1       -0.1545
     44 C         142.8847  140.6340  168.2104 C.3     1  UNL1        0.1490
     45 C         142.6438  139.5393  169.2073 C.3     1  UNL1        0.0273
     46 C         143.3490  141.9825  168.6749 C.3     1  UNL1        0.0273
     47 C         137.2380  140.1036  152.9068 C.3     1  UNL1        0.2525
     48 O         138.7191  139.9557  153.0929 O.3     1  UNL1       -0.4714
@<TRIPOS>BOND
     1    47    48    1
     2    48     1    1
     3     1     2   ar
     4     2     3   ar
     5     3     4   ar
     6     4     5   ar
     7     5     6   ar
     8     5     7    1
     9     7     8    1
    10     8     9    1
    11     9    20    1
    12    20    21    2
    13    20    22   am
    14    22    23    1
    15    23    24    1
    16    24    25    1
    17    25    26    1
    18    26    27    1
    19    27    28    1
    20    28    29    1
    21    28    30    1
    22     9    10    1
    23    10    11    1
    24    11    12   ar
    25    12    13   ar
    26    13    31    1
    27    31    32    1
    28    32    33    1
    29    33    34    1
    30    34    35    1
    31    35    36    1
    32    13    14   ar
    33    14    15   ar
    34    15    16   ar
    35    16    17   ar
    36    17    37    1
    37    37    38    2
    38    37    39   am
    39    39    41    1
    40    41    42    2
    41    41    43    2
    42    41    44    1
    43    44    45    1
    44    44    46    1
    45    17    18   ar
    46    18    19   ar
    47     6     1   ar
    48     9     7    1
    49    26    22    1
    50    19    11   ar
    51    12     4    1
    52    36    31    1
    53    19    14   ar
    54    30    23    1
    55    39    40    1
