@<TRIPOS>MOLECULE
*****
 43 48 0 0 0
SMALL
GASTEIGER

@<TRIPOS>ATOM
      1 C         138.9482  143.6156  161.7757 C.ar    1  UNL1        0.0910
      2 N         139.5674  144.4189  160.6706 N.ar    1  UNL1       -0.2298
      3 C         140.3153  143.4762  159.7751 C.ar    1  UNL1        0.1443
      4 C         141.1190  143.7008  158.5286 C.ar    1  UNL1        0.0139
      5 C         141.2759  145.0868  157.9770 C.3     1  UNL1        0.0342
      6 C         141.7657  142.5394  157.8339 C.ar    1  UNL1        0.0148
      7 C         141.6088  141.1534  158.3855 C.ar    1  UNL1        0.0656
      8 C         140.8051  140.9288  159.6320 C.ar    1  UNL1        0.0970
      9 N         140.1584  142.0902  160.3267 N.ar    1  UNL1       -0.2764
     10 C         139.3135  142.1764  161.5632 C.ar    1  UNL1        0.1365
     11 N         142.2556  139.9919  157.6907 N.pl3   1  UNL1       -0.3035
     12 C         142.0099  138.5948  158.1782 C.3     1  UNL1        0.1082
     13 C         142.6567  137.4333  157.4833 C.3     1  UNL1        0.0942
     14 N         143.5492  137.6691  156.3010 N.3     1  UNL1       -0.2620
     15 C         143.7949  139.0663  155.8135 C.3     1  UNL1        0.0942
     16 C         143.1481  140.2276  156.5084 C.3     1  UNL1        0.1082
     17 C         144.1959  136.5077  155.6062 C.3     1  UNL1        0.1587
     18 C         143.3581  135.3601  155.1254 C.2     1  UNL1        0.2422
     19 O         142.5687  135.4878  153.8564 O.2     1  UNL1       -0.2734
     20 N         143.3098  134.0848  155.9138 N.am    1  UNL1       -0.2733
     21 C         142.6113  132.7667  155.7569 C.3     1  UNL1        0.1244
     22 C         143.2415  132.2814  157.0286 C.3     1  UNL1        0.1500
     23 O         143.1931  131.0062  157.8170 O.3     1  UNL1       -0.3810
     24 C         143.9400  133.5995  157.1855 C.3     1  UNL1        0.1244
     25 H         142.6099  130.3723  157.3710 H       1  UNL1        0.2105
     26 C         138.7697  144.7243  164.1185 C.3     1  UNL1        0.0068
     27 C         138.1108  144.1565  162.8965 C.3     1  UNL1        0.0487
     28 N         138.9055  141.0253  162.4342 N.pl3   1  UNL1       -0.2509
     29 C         137.7985  140.1112  161.9992 C.3     1  UNL1        0.1207
     30 C         139.6043  140.7883  163.7400 C.ar    1  UNL1        0.1685
     31 N         139.2477  141.4118  165.0568 N.ar    1  UNL1       -0.2230
     32 C         140.2055  140.8950  166.0890 C.ar    1  UNL1        0.0989
     33 C         141.1542  139.9521  165.4102 C.ar    1  UNL1        0.1179
     34 S         140.7826  139.8861  163.9584 S.2     1  UNL1       -0.0408
     35 C         140.2134  141.2575  167.5445 C.ar    1  UNL1        0.0190
     36 C         139.6932  140.2860  168.5622 C.ar    1  UNL1        0.0038
     37 C         139.7010  140.6485  170.0177 C.ar    1  UNL1        0.0297
     38 C         140.2290  141.9825  170.4556 C.ar    1  UNL1        0.1401
     39 F         140.2368  142.3450  171.9111 F       1  UNL1       -0.2042
     40 C         140.7492  142.9540  169.4379 C.ar    1  UNL1        0.0297
     41 C         140.7413  142.5915  167.9824 C.ar    1  UNL1        0.0038
     42 C         142.2773  139.2060  166.0676 C.1     1  UNL1        0.1086
     43 N         143.4004  138.4600  166.7249 N.1     1  UNL1       -0.1903
@<TRIPOS>BOND
     1    26    27    1
     2    27     1    1
     3     1     2   ar
     4     2     3   ar
     5     3     4   ar
     6     4     5    1
     7     4     6   ar
     8     6     7   ar
     9     7    11    1
    10    11    12    1
    11    12    13    1
    12    13    14    1
    13    14    17    1
    14    17    18    1
    15    18    19    2
    16    18    20   am
    17    20    21    1
    18    21    22    1
    19    22    23    1
    20    22    24    1
    21    14    15    1
    22    15    16    1
    23     7     8   ar
    24     8     9   ar
    25     9    10   ar
    26    10    28    1
    27    28    29    1
    28    28    30    1
    29    30    31   ar
    30    31    32   ar
    31    32    35    1
    32    35    36   ar
    33    36    37   ar
    34    37    38   ar
    35    38    39    1
    36    38    40   ar
    37    40    41   ar
    38    32    33   ar
    39    33    42    1
    40    42    43    3
    41    33    34   ar
    42    10     1   ar
    43    34    30   ar
    44     9     3   ar
    45    41    35   ar
    46    16    11    1
    47    24    20    1
    48    23    25    1
@<TRIPOS>MOLECULE
*****
 43 48 0 0 0
SMALL
GASTEIGER

@<TRIPOS>ATOM
      1 C         142.4418  144.1911  162.2982 C.ar    1  UNL1        0.0910
      2 N         143.3027  143.9097  161.1025 N.ar    1  UNL1       -0.2298
      3 C         142.4412  143.2782  160.0494 C.ar    1  UNL1        0.1443
      4 C         142.7454  142.7883  158.6647 C.ar    1  UNL1        0.0139
      5 C         144.1387  142.8972  158.1198 C.3     1  UNL1        0.0342
      6 C         141.6564  142.1894  157.8249 C.ar    1  UNL1        0.0148
      7 C         140.2631  142.0805  158.3698 C.ar    1  UNL1        0.0656
      8 C         139.9589  142.5704  159.7544 C.ar    1  UNL1        0.0970
      9 N         141.0479  143.1692  160.5942 N.ar    1  UNL1       -0.2764
     10 C         141.0483  143.7334  161.9841 C.ar    1  UNL1        0.1365
     11 N         139.1740  141.4816  157.5299 N.pl3   1  UNL1       -0.3035
     12 C         139.4697  140.3080  156.6438 C.3     1  UNL1        0.1082
     13 C         138.3806  139.7091  155.8039 C.3     1  UNL1        0.0942
     14 N         136.9959  140.2839  155.8501 N.3     1  UNL1       -0.2620
     15 C         136.7003  141.4576  156.7362 C.3     1  UNL1        0.0942
     16 C         137.7893  142.0565  157.5761 C.3     1  UNL1        0.1082
     17 C         135.9069  139.6851  155.0103 C.3     1  UNL1        0.1587
     18 C         134.5967  140.3999  154.8602 C.2     1  UNL1        0.2422
     19 O         134.3854  141.3460  153.7156 O.2     1  UNL1       -0.2734
     20 N         133.4978  140.1684  155.8547 N.am    1  UNL1       -0.2733
     21 C         132.0996  140.6828  156.0294 C.3     1  UNL1        0.1244
     22 C         131.9438  139.8411  157.2611 C.3     1  UNL1        0.1500
     23 O         130.8450  139.6096  158.2556 O.3     1  UNL1       -0.3810
     24 C         133.3420  139.3267  157.0864 C.3     1  UNL1        0.1244
     25 H         130.0726  140.1444  158.0142 H       1  UNL1        0.2105
     26 C         143.9771  144.1713  164.3940 C.3     1  UNL1        0.0068
     27 C         142.8950  144.8197  163.5826 C.3     1  UNL1        0.0487
     28 N         139.8632  143.8241  162.8992 N.pl3   1  UNL1       -0.2509
     29 C         138.7992  144.8514  162.6489 C.3     1  UNL1        0.1207
     30 C         139.7420  142.8875  164.0645 C.ar    1  UNL1        0.1685
     31 N         140.5000  142.9833  165.3553 N.ar    1  UNL1       -0.2230
     32 C         140.0680  141.8456  166.2321 C.ar    1  UNL1        0.0989
     33 C         139.0429  141.0466  165.4833 C.ar    1  UNL1        0.1179
     34 S         138.8415  141.6905  164.1435 S.2     1  UNL1       -0.0408
     35 C         140.5724  141.5574  167.6151 C.ar    1  UNL1        0.0190
     36 C         141.2171  140.2374  167.9184 C.ar    1  UNL1        0.0038
     37 C         141.7215  139.9493  169.3013 C.ar    1  UNL1        0.0297
     38 C         141.5813  140.9811  170.3810 C.ar    1  UNL1        0.1401
     39 F         142.0857  140.6930  171.7639 F       1  UNL1       -0.2042
     40 C         140.9366  142.3011  170.0777 C.ar    1  UNL1        0.0297
     41 C         140.4322  142.5892  168.6947 C.ar    1  UNL1        0.0038
     42 C         138.3423  139.8191  165.9858 C.1     1  UNL1        0.1086
     43 N         137.6417  138.5916  166.4883 N.1     1  UNL1       -0.1903
@<TRIPOS>BOND
     1    26    27    1
     2    27     1    1
     3     1     2   ar
     4     2     3   ar
     5     3     4   ar
     6     4     5    1
     7     4     6   ar
     8     6     7   ar
     9     7    11    1
    10    11    12    1
    11    12    13    1
    12    13    14    1
    13    14    17    1
    14    17    18    1
    15    18    19    2
    16    18    20   am
    17    20    21    1
    18    21    22    1
    19    22    23    1
    20    22    24    1
    21    14    15    1
    22    15    16    1
    23     7     8   ar
    24     8     9   ar
    25     9    10   ar
    26    10    28    1
    27    28    29    1
    28    28    30    1
    29    30    31   ar
    30    31    32   ar
    31    32    35    1
    32    35    36   ar
    33    36    37   ar
    34    37    38   ar
    35    38    39    1
    36    38    40   ar
    37    40    41   ar
    38    32    33   ar
    39    33    42    1
    40    42    43    3
    41    33    34   ar
    42    10     1   ar
    43    34    30   ar
    44     9     3   ar
    45    41    35   ar
    46    16    11    1
    47    24    20    1
    48    23    25    1
@<TRIPOS>MOLECULE
*****
 43 48 0 0 0
SMALL
GASTEIGER

@<TRIPOS>ATOM
      1 C         142.4649  144.2785  162.1028 C.ar    1  UNL1        0.0910
      2 N         141.9560  144.7548  160.7746 N.ar    1  UNL1       -0.2298
      3 C         142.1699  143.6567  159.7753 C.ar    1  UNL1        0.1443
      4 C         141.8637  143.5594  158.3101 C.ar    1  UNL1        0.0139
      5 C         141.2225  144.7143  157.5995 C.3     1  UNL1        0.0342
      6 C         142.1987  142.3070  157.5556 C.ar    1  UNL1        0.0148
      7 C         142.8398  141.1520  158.2662 C.ar    1  UNL1        0.0656
      8 C         143.1460  141.2494  159.7314 C.ar    1  UNL1        0.0970
      9 N         142.8111  142.5018  160.4859 N.ar    1  UNL1       -0.2764
     10 C         142.9934  142.8860  161.9243 C.ar    1  UNL1        0.1365
     11 N         143.1748  139.8996  157.5116 N.pl3   1  UNL1       -0.3035
     12 C         144.1396  139.9507  156.3642 C.3     1  UNL1        0.1082
     13 C         144.4745  138.6983  155.6096 C.3     1  UNL1        0.0942
     14 N         143.8446  137.3949  156.0024 N.3     1  UNL1       -0.2620
     15 C         142.8798  137.3438  157.1499 C.3     1  UNL1        0.0942
     16 C         142.5449  138.5962  157.9044 C.3     1  UNL1        0.1082
     17 C         144.1795  136.1425  155.2479 C.3     1  UNL1        0.1587
     18 C         143.1289  135.0941  155.0308 C.2     1  UNL1        0.2422
     19 O         142.0567  135.3082  154.0039 O.2     1  UNL1       -0.2734
     20 N         143.1506  133.8316  155.8406 N.am    1  UNL1       -0.2733
     21 C         142.2993  132.5983  155.9054 C.3     1  UNL1        0.1244
     22 C         143.1812  132.0463  156.9858 C.3     1  UNL1        0.1500
     23 O         143.2029  130.7838  157.7956 O.3     1  UNL1       -0.3810
     24 C         144.0325  133.2796  156.9210 C.3     1  UNL1        0.1244
     25 H         142.4603  130.2180  157.5323 H       1  UNL1        0.2105
     26 C         143.7211  145.2712  164.1489 C.3     1  UNL1        0.0068
     27 C         142.4483  145.0578  163.3843 C.3     1  UNL1        0.0487
     28 N         143.5980  142.0284  162.9962 N.pl3   1  UNL1       -0.2509
     29 C         145.0891  141.9436  163.1368 C.3     1  UNL1        0.1207
     30 C         142.7118  141.2556  163.9274 C.ar    1  UNL1        0.1685
     31 N         142.6376  141.4233  165.4161 N.ar    1  UNL1       -0.2230
     32 C         141.6241  140.4507  165.9422 C.ar    1  UNL1        0.0989
     33 C         141.0719  139.6819  164.7787 C.ar    1  UNL1        0.1179
     34 S         141.7441  140.1793  163.5334 S.2     1  UNL1       -0.0408
     35 C         141.2316  140.2773  167.3796 C.ar    1  UNL1        0.0190
     36 C         142.2218  139.7350  168.3672 C.ar    1  UNL1        0.0038
     37 C         141.8293  139.5617  169.8046 C.ar    1  UNL1        0.0297
     38 C         140.4467  139.9306  170.2543 C.ar    1  UNL1        0.1401
     39 F         140.0542  139.7573  171.6916 F       1  UNL1       -0.2042
     40 C         139.4565  140.4730  169.2666 C.ar    1  UNL1        0.0297
     41 C         139.8490  140.6463  167.8293 C.ar    1  UNL1        0.0038
     42 C         140.0302  138.6047  164.8481 C.1     1  UNL1        0.1086
     43 N         138.9887  137.5274  164.9174 N.1     1  UNL1       -0.1903
@<TRIPOS>BOND
     1    26    27    1
     2    27     1    1
     3     1     2   ar
     4     2     3   ar
     5     3     4   ar
     6     4     5    1
     7     4     6   ar
     8     6     7   ar
     9     7    11    1
    10    11    12    1
    11    12    13    1
    12    13    14    1
    13    14    17    1
    14    17    18    1
    15    18    19    2
    16    18    20   am
    17    20    21    1
    18    21    22    1
    19    22    23    1
    20    22    24    1
    21    14    15    1
    22    15    16    1
    23     7     8   ar
    24     8     9   ar
    25     9    10   ar
    26    10    28    1
    27    28    29    1
    28    28    30    1
    29    30    31   ar
    30    31    32   ar
    31    32    35    1
    32    35    36   ar
    33    36    37   ar
    34    37    38   ar
    35    38    39    1
    36    38    40   ar
    37    40    41   ar
    38    32    33   ar
    39    33    42    1
    40    42    43    3
    41    33    34   ar
    42    10     1   ar
    43    34    30   ar
    44     9     3   ar
    45    41    35   ar
    46    16    11    1
    47    24    20    1
    48    23    25    1
@<TRIPOS>MOLECULE
*****
 43 48 0 0 0
SMALL
GASTEIGER

@<TRIPOS>ATOM
      1 C         142.5926  144.0475  161.7610 C.ar    1  UNL1        0.0910
      2 N         141.7865  144.3593  160.5350 N.ar    1  UNL1       -0.2298
      3 C         141.9428  143.2177  159.5747 C.ar    1  UNL1        0.1443
      4 C         141.3798  142.9731  158.2060 C.ar    1  UNL1        0.0139
      5 C         140.4770  143.9906  157.5736 C.3     1  UNL1        0.0342
      6 C         141.7195  141.7112  157.4699 C.ar    1  UNL1        0.0148
      7 C         142.6222  140.6938  158.1023 C.ar    1  UNL1        0.0656
      8 C         143.1852  140.9383  159.4709 C.ar    1  UNL1        0.0970
      9 N         142.8455  142.2003  160.2071 N.ar    1  UNL1       -0.2764
     10 C         143.2471  142.7132  161.5583 C.ar    1  UNL1        0.1365
     11 N         142.9619  139.4318  157.3660 N.pl3   1  UNL1       -0.3035
     12 C         143.8416  139.4852  156.1523 C.3     1  UNL1        0.1082
     13 C         144.1813  138.2232  155.4160 C.3     1  UNL1        0.0942
     14 N         143.6413  136.9078  155.8936 N.3     1  UNL1       -0.2620
     15 C         142.7615  136.8544  157.1074 C.3     1  UNL1        0.0942
     16 C         142.4219  138.1164  157.8436 C.3     1  UNL1        0.1082
     17 C         143.9809  135.6458  155.1574 C.3     1  UNL1        0.1587
     18 C         142.9688  134.5438  155.0514 C.2     1  UNL1        0.2422
     19 O         141.8335  134.6592  154.0779 O.2     1  UNL1       -0.2734
     20 N         143.0920  133.3264  155.9191 N.am    1  UNL1       -0.2733
     21 C         142.3024  132.0628  156.0919 C.3     1  UNL1        0.1244
     22 C         143.2662  131.6047  157.1461 C.3     1  UNL1        0.1500
     23 O         143.3894  130.3874  158.0137 O.3     1  UNL1       -0.3810
     24 C         144.0558  132.8684  156.9733 C.3     1  UNL1        0.1244
     25 H         142.6601  129.7777  157.8208 H       1  UNL1        0.2105
     26 C         141.4923  145.3865  163.6965 C.3     1  UNL1        0.0068
     27 C         142.7215  144.9173  162.9762 C.3     1  UNL1        0.0487
     28 N         144.1455  142.0143  162.5353 N.pl3   1  UNL1       -0.2509
     29 C         145.6215  142.2816  162.5208 C.3     1  UNL1        0.1207
     30 C         143.5680  141.0482  163.5268 C.ar    1  UNL1        0.1685
     31 N         142.1111  140.8631  163.8318 N.ar    1  UNL1       -0.2230
     32 C         141.9889  139.7980  164.8809 C.ar    1  UNL1        0.0989
     33 C         143.3702  139.3249  165.2243 C.ar    1  UNL1        0.1179
     34 S         144.3462  140.0975  164.3874 S.2     1  UNL1       -0.0408
     35 C         140.7098  139.2945  165.4813 C.ar    1  UNL1        0.0190
     36 C         140.0043  138.1213  164.8682 C.ar    1  UNL1        0.0038
     37 C         138.7252  137.6177  165.4685 C.ar    1  UNL1        0.0297
     38 C         138.1516  138.2874  166.6819 C.ar    1  UNL1        0.1401
     39 F         136.8725  137.7839  167.2823 F       1  UNL1       -0.2042
     40 C         138.8570  139.4606  167.2950 C.ar    1  UNL1        0.0297
     41 C         140.1361  139.9642  166.6947 C.ar    1  UNL1        0.0038
     42 C         143.7151  138.2651  166.2284 C.1     1  UNL1        0.1086
     43 N         144.0599  137.2054  167.2324 N.1     1  UNL1       -0.1903
@<TRIPOS>BOND
     1    26    27    1
     2    27     1    1
     3     1     2   ar
     4     2     3   ar
     5     3     4   ar
     6     4     5    1
     7     4     6   ar
     8     6     7   ar
     9     7    11    1
    10    11    12    1
    11    12    13    1
    12    13    14    1
    13    14    17    1
    14    17    18    1
    15    18    19    2
    16    18    20   am
    17    20    21    1
    18    21    22    1
    19    22    23    1
    20    22    24    1
    21    14    15    1
    22    15    16    1
    23     7     8   ar
    24     8     9   ar
    25     9    10   ar
    26    10    28    1
    27    28    29    1
    28    28    30    1
    29    30    31   ar
    30    31    32   ar
    31    32    35    1
    32    35    36   ar
    33    36    37   ar
    34    37    38   ar
    35    38    39    1
    36    38    40   ar
    37    40    41   ar
    38    32    33   ar
    39    33    42    1
    40    42    43    3
    41    33    34   ar
    42    10     1   ar
    43    34    30   ar
    44     9     3   ar
    45    41    35   ar
    46    16    11    1
    47    24    20    1
    48    23    25    1
@<TRIPOS>MOLECULE
*****
 43 48 0 0 0
SMALL
GASTEIGER

@<TRIPOS>ATOM
      1 C         143.2392  141.0623  162.2944 C.ar    1  UNL1        0.0910
      2 N         143.4430  142.1544  161.2865 N.ar    1  UNL1       -0.2298
      3 C         142.4092  141.9923  160.2119 C.ar    1  UNL1        0.1443
      4 C         142.1263  142.7763  158.9648 C.ar    1  UNL1        0.0139
      5 C         142.9691  143.9687  158.6211 C.3     1  UNL1        0.0342
      6 C         141.0007  142.3681  158.0614 C.ar    1  UNL1        0.0148
      7 C         140.1579  141.1758  158.4051 C.ar    1  UNL1        0.0656
      8 C         140.4408  140.3917  159.6522 C.ar    1  UNL1        0.0970
      9 N         141.5664  140.8000  160.5556 N.ar    1  UNL1       -0.2764
     10 C         142.0794  140.2253  161.8426 C.ar    1  UNL1        0.1365
     11 N         139.0322  140.7675  157.5016 N.pl3   1  UNL1       -0.3035
     12 C         137.6819  141.4032  157.6515 C.3     1  UNL1        0.1082
     13 C         136.5562  140.9949  156.7480 C.3     1  UNL1        0.0942
     14 N         136.7809  139.9509  155.6947 N.3     1  UNL1       -0.2620
     15 C         138.1313  139.3152  155.5448 C.3     1  UNL1        0.0942
     16 C         139.2569  139.7235  156.4482 C.3     1  UNL1        0.1082
     17 C         135.6553  139.5427  154.7912 C.3     1  UNL1        0.1587
     18 C         134.3865  140.3423  154.7655 C.2     1  UNL1        0.2422
     19 O         134.1760  141.3811  153.7042 O.2     1  UNL1       -0.2734
     20 N         133.3281  140.1030  155.8013 N.am    1  UNL1       -0.2733
     21 C         131.9758  140.6844  156.0899 C.3     1  UNL1        0.1244
     22 C         131.8314  139.7646  157.2660 C.3     1  UNL1        0.1500
     23 O         130.7731  139.5253  158.3017 O.3     1  UNL1       -0.3810
     24 C         133.1837  139.1833  156.9774 C.3     1  UNL1        0.1244
     25 H         130.0242  140.1209  158.1423 H       1  UNL1        0.2105
     26 C         145.4973  141.2471  163.5659 C.3     1  UNL1        0.0068
     27 C         144.0525  140.8454  163.5360 C.3     1  UNL1        0.0487
     28 N         141.5291  139.0243  162.5531 N.pl3   1  UNL1       -0.2509
     29 C         141.7127  137.6561  161.9661 C.3     1  UNL1        0.1207
     30 C         140.7954  139.1913  163.8506 C.ar    1  UNL1        0.1685
     31 N         141.1083  140.1984  164.9173 N.ar    1  UNL1       -0.2230
     32 C         140.1261  140.0101  166.0352 C.ar    1  UNL1        0.0989
     33 C         139.2062  138.8865  165.6596 C.ar    1  UNL1        0.1179
     34 S         139.6198  138.3804  164.3094 S.2     1  UNL1       -0.0408
     35 C         140.0732  140.8056  167.3058 C.ar    1  UNL1        0.0190
     36 C         139.6465  140.1485  168.5849 C.ar    1  UNL1        0.0038
     37 C         139.5936  140.9440  169.8554 C.ar    1  UNL1        0.0297
     38 C         139.9674  142.3967  169.8469 C.ar    1  UNL1        0.1401
     39 F         139.9144  143.1922  171.1175 F       1  UNL1       -0.2042
     40 C         140.3940  143.0538  168.5678 C.ar    1  UNL1        0.0297
     41 C         140.4470  142.2583  167.2972 C.ar    1  UNL1        0.0038
     42 C         138.0717  138.3611  166.4885 C.1     1  UNL1        0.1086
     43 N         136.9373  137.8358  167.3174 N.1     1  UNL1       -0.1903
@<TRIPOS>BOND
     1    26    27    1
     2    27     1    1
     3     1     2   ar
     4     2     3   ar
     5     3     4   ar
     6     4     5    1
     7     4     6   ar
     8     6     7   ar
     9     7    11    1
    10    11    12    1
    11    12    13    1
    12    13    14    1
    13    14    17    1
    14    17    18    1
    15    18    19    2
    16    18    20   am
    17    20    21    1
    18    21    22    1
    19    22    23    1
    20    22    24    1
    21    14    15    1
    22    15    16    1
    23     7     8   ar
    24     8     9   ar
    25     9    10   ar
    26    10    28    1
    27    28    29    1
    28    28    30    1
    29    30    31   ar
    30    31    32   ar
    31    32    35    1
    32    35    36   ar
    33    36    37   ar
    34    37    38   ar
    35    38    39    1
    36    38    40   ar
    37    40    41   ar
    38    32    33   ar
    39    33    42    1
    40    42    43    3
    41    33    34   ar
    42    10     1   ar
    43    34    30   ar
    44     9     3   ar
    45    41    35   ar
    46    16    11    1
    47    24    20    1
    48    23    25    1
@<TRIPOS>MOLECULE
*****
 43 48 0 0 0
SMALL
GASTEIGER

@<TRIPOS>ATOM
      1 C         139.0546  142.8626  161.2073 C.ar    1  UNL1        0.0910
      2 N         138.2160  142.7989  159.9653 N.ar    1  UNL1       -0.2298
      3 C         138.7075  141.6523  159.1323 C.ar    1  UNL1        0.1443
      4 C         138.2623  141.1123  157.8057 C.ar    1  UNL1        0.0139
      5 C         137.1199  141.7573  157.0784 C.3     1  UNL1        0.0342
      6 C         138.9596  139.9272  157.2062 C.ar    1  UNL1        0.0148
      7 C         140.1020  139.2822  157.9334 C.ar    1  UNL1        0.0656
      8 C         140.5471  139.8223  159.2601 C.ar    1  UNL1        0.0970
      9 N         139.8499  141.0073  159.8596 N.ar    1  UNL1       -0.2764
     10 C         140.0644  141.7553  161.1420 C.ar    1  UNL1        0.1365
     11 N         140.7993  138.0971  157.3339 N.pl3   1  UNL1       -0.3035
     12 C         142.1273  137.6559  157.8740 C.3     1  UNL1        0.1082
     13 C         142.8246  136.4708  157.2745 C.3     1  UNL1        0.0942
     14 N         142.1938  135.7269  156.1348 N.3     1  UNL1       -0.2620
     15 C         140.8657  136.1682  155.5947 C.3     1  UNL1        0.0942
     16 C         140.1685  137.3532  156.1943 C.3     1  UNL1        0.1082
     17 C         142.8910  134.5419  155.5353 C.3     1  UNL1        0.1587
     18 C         142.3870  133.1564  155.8115 C.2     1  UNL1        0.2422
     19 O         141.0515  132.7247  155.2823 O.2     1  UNL1       -0.2734
     20 N         143.2186  132.2025  156.6169 N.am    1  UNL1       -0.2733
     21 C         143.0556  130.7861  157.0832 C.3     1  UNL1        0.1244
     22 C         144.3946  130.8535  157.7560 C.3     1  UNL1        0.1500
     23 O         145.2261  129.8997  158.5614 O.3     1  UNL1       -0.3810
     24 C         144.5575  132.2699  157.2897 C.3     1  UNL1        0.1244
     25 H         144.7578  129.0544  158.6459 H       1  UNL1        0.2105
     26 C         137.8808  143.6426  163.3899 C.3     1  UNL1        0.0068
     27 C         138.9090  143.8586  162.3194 C.3     1  UNL1        0.0487
     28 N         141.1059  141.4496  162.1773 N.pl3   1  UNL1       -0.2509
     29 C         142.5600  141.6249  161.8529 C.3     1  UNL1        0.1207
     30 C         140.6936  140.9687  163.5368 C.ar    1  UNL1        0.1685
     31 N         141.4124  141.2427  164.8245 N.ar    1  UNL1       -0.2230
     32 C         140.6530  140.5727  165.9310 C.ar    1  UNL1        0.0989
     33 C         139.4648  139.8846  165.3273 C.ar    1  UNL1        0.1179
     34 S         139.4898  140.1294  163.8475 S.2     1  UNL1       -0.0408
     35 C         141.0178  140.5880  167.3859 C.ar    1  UNL1        0.0190
     36 C         140.0876  141.2085  168.3858 C.ar    1  UNL1        0.0038
     37 C         140.4524  141.2238  169.8407 C.ar    1  UNL1        0.0297
     38 C         141.7473  140.6187  170.2957 C.ar    1  UNL1        0.1401
     39 F         142.1121  140.6341  171.7506 F       1  UNL1       -0.2042
     40 C         142.6775  139.9983  169.2958 C.ar    1  UNL1        0.0297
     41 C         142.3127  139.9829  167.8409 C.ar    1  UNL1        0.0038
     42 C         138.4326  139.0911  166.0723 C.1     1  UNL1        0.1086
     43 N         137.4004  138.2976  166.8171 N.1     1  UNL1       -0.1903
@<TRIPOS>BOND
     1    26    27    1
     2    27     1    1
     3     1     2   ar
     4     2     3   ar
     5     3     4   ar
     6     4     5    1
     7     4     6   ar
     8     6     7   ar
     9     7    11    1
    10    11    12    1
    11    12    13    1
    12    13    14    1
    13    14    17    1
    14    17    18    1
    15    18    19    2
    16    18    20   am
    17    20    21    1
    18    21    22    1
    19    22    23    1
    20    22    24    1
    21    14    15    1
    22    15    16    1
    23     7     8   ar
    24     8     9   ar
    25     9    10   ar
    26    10    28    1
    27    28    29    1
    28    28    30    1
    29    30    31   ar
    30    31    32   ar
    31    32    35    1
    32    35    36   ar
    33    36    37   ar
    34    37    38   ar
    35    38    39    1
    36    38    40   ar
    37    40    41   ar
    38    32    33   ar
    39    33    42    1
    40    42    43    3
    41    33    34   ar
    42    10     1   ar
    43    34    30   ar
    44     9     3   ar
    45    41    35   ar
    46    16    11    1
    47    24    20    1
    48    23    25    1
@<TRIPOS>MOLECULE
*****
 43 48 0 0 0
SMALL
GASTEIGER

@<TRIPOS>ATOM
      1 C         143.4355  139.4689  161.8730 C.ar    1  UNL1        0.0910
      2 N         144.1354  139.8209  160.5939 N.ar    1  UNL1       -0.2298
      3 C         143.1136  139.8381  159.4959 C.ar    1  UNL1        0.1443
      4 C         143.2236  140.1205  158.0269 C.ar    1  UNL1        0.0139
      5 C         144.5550  140.4620  157.4264 C.3     1  UNL1        0.0342
      6 C         142.0021  140.0615  157.1584 C.ar    1  UNL1        0.0148
      7 C         140.6706  139.7200  157.7589 C.ar    1  UNL1        0.0656
      8 C         140.5607  139.4376  159.2279 C.ar    1  UNL1        0.0970
      9 N         141.7822  139.4966  160.0964 N.ar    1  UNL1       -0.2764
     10 C         141.9811  139.2684  161.5655 C.ar    1  UNL1        0.1365
     11 N         139.4491  139.6610  156.8903 N.pl3   1  UNL1       -0.3035
     12 C         138.3107  140.6074  157.1316 C.3     1  UNL1        0.1082
     13 C         137.0891  140.5484  156.2630 C.3     1  UNL1        0.0942
     14 N         137.0060  139.5429  155.1531 N.3     1  UNL1       -0.2620
     15 C         138.1445  138.5963  154.9117 C.3     1  UNL1        0.0942
     16 C         139.3659  138.6554  155.7803 C.3     1  UNL1        0.1082
     17 C         135.7846  139.4838  154.2845 C.3     1  UNL1        0.1587
     18 C         134.6857  140.4884  154.4663 C.2     1  UNL1        0.2422
     19 O         134.6516  141.7246  153.6174 O.2     1  UNL1       -0.2734
     20 N         133.6209  140.2570  155.4972 N.am    1  UNL1       -0.2733
     21 C         132.4054  141.0081  155.9539 C.3     1  UNL1        0.1244
     22 C         132.1151  139.9295  156.9551 C.3     1  UNL1        0.1500
     23 O         131.0504  139.6980  157.9860 O.3     1  UNL1       -0.3810
     24 C         133.3306  139.1784  156.4985 C.3     1  UNL1        0.1244
     25 H         130.4220  140.4369  157.9734 H       1  UNL1        0.2105
     26 C         144.2064  140.5425  164.1098 C.3     1  UNL1        0.0068
     27 C         144.0773  139.3399  163.2227 C.3     1  UNL1        0.0487
     28 N         140.9131  138.9038  162.5537 N.pl3   1  UNL1       -0.2509
     29 C         140.3066  137.5320  162.5305 C.3     1  UNL1        0.1207
     30 C         140.4516  139.9107  163.5650 C.ar    1  UNL1        0.1685
     31 N         140.7139  139.8619  165.0411 N.ar    1  UNL1       -0.2230
     32 C         140.0711  141.0644  165.6662 C.ar    1  UNL1        0.0989
     33 C         139.4116  141.8565  164.5765 C.ar    1  UNL1        0.1179
     34 S         139.6468  141.1435  163.2779 S.2     1  UNL1       -0.0408
     35 C         140.0854  141.4135  167.1250 C.ar    1  UNL1        0.0190
     36 C         140.5232  142.7790  167.5651 C.ar    1  UNL1        0.0038
     37 C         140.5374  143.1281  169.0238 C.ar    1  UNL1        0.0297
     38 C         140.1139  142.1117  170.0425 C.ar    1  UNL1        0.1401
     39 F         140.1281  142.4609  171.5012 F       1  UNL1       -0.2042
     40 C         139.6761  140.7462  169.6023 C.ar    1  UNL1        0.0297
     41 C         139.6619  140.3971  168.1436 C.ar    1  UNL1        0.0038
     42 C         138.6506  143.1369  164.7541 C.1     1  UNL1        0.1086
     43 N         137.8896  144.4173  164.9316 N.1     1  UNL1       -0.1903
@<TRIPOS>BOND
     1    26    27    1
     2    27     1    1
     3     1     2   ar
     4     2     3   ar
     5     3     4   ar
     6     4     5    1
     7     4     6   ar
     8     6     7   ar
     9     7    11    1
    10    11    12    1
    11    12    13    1
    12    13    14    1
    13    14    17    1
    14    17    18    1
    15    18    19    2
    16    18    20   am
    17    20    21    1
    18    21    22    1
    19    22    23    1
    20    22    24    1
    21    14    15    1
    22    15    16    1
    23     7     8   ar
    24     8     9   ar
    25     9    10   ar
    26    10    28    1
    27    28    29    1
    28    28    30    1
    29    30    31   ar
    30    31    32   ar
    31    32    35    1
    32    35    36   ar
    33    36    37   ar
    34    37    38   ar
    35    38    39    1
    36    38    40   ar
    37    40    41   ar
    38    32    33   ar
    39    33    42    1
    40    42    43    3
    41    33    34   ar
    42    10     1   ar
    43    34    30   ar
    44     9     3   ar
    45    41    35   ar
    46    16    11    1
    47    24    20    1
    48    23    25    1
@<TRIPOS>MOLECULE
*****
 43 48 0 0 0
SMALL
GASTEIGER

@<TRIPOS>ATOM
      1 C         138.3093  142.0964  161.4898 C.ar    1  UNL1        0.0910
      2 N         138.6238  142.8282  160.2188 N.ar    1  UNL1       -0.2298
      3 C         139.2663  141.8581  159.2722 C.ar    1  UNL1        0.1443
      4 C         139.7868  142.0150  157.8742 C.ar    1  UNL1        0.0139
      5 C         139.7043  143.3464  157.1882 C.3     1  UNL1        0.0342
      6 C         140.3899  140.8406  157.1622 C.ar    1  UNL1        0.0148
      7 C         140.4724  139.5092  157.8482 C.ar    1  UNL1        0.0656
      8 C         139.9518  139.3522  159.2461 C.ar    1  UNL1        0.0970
      9 N         139.3488  140.5267  159.9581 N.ar    1  UNL1       -0.2764
     10 C         138.7573  140.6740  161.3287 C.ar    1  UNL1        0.1365
     11 N         141.0754  138.3347  157.1361 N.pl3   1  UNL1       -0.3035
     12 C         142.4715  137.8949  157.4639 C.3     1  UNL1        0.1082
     13 C         143.0746  136.7204  156.7519 C.3     1  UNL1        0.0942
     14 N         142.2815  135.9858  155.7120 N.3     1  UNL1       -0.2620
     15 C         140.8854  136.4257  155.3842 C.3     1  UNL1        0.0942
     16 C         140.2824  137.6001  156.0962 C.3     1  UNL1        0.1082
     17 C         142.8845  134.8114  154.9999 C.3     1  UNL1        0.1587
     18 C         143.1794  133.5483  155.7532 C.2     1  UNL1        0.2422
     19 O         144.2672  133.5274  156.7858 O.2     1  UNL1       -0.2734
     20 N         142.3866  132.3059  155.4739 N.am    1  UNL1       -0.2733
     21 C         142.3904  130.9032  156.0054 C.3     1  UNL1        0.1244
     22 C         141.2653  130.5490  155.0788 C.3     1  UNL1        0.1500
     23 O         140.4724  129.3067  154.7995 O.3     1  UNL1       -0.3810
     24 C         141.2614  131.9517  154.5473 C.3     1  UNL1        0.1244
     25 H         140.7882  128.5870  155.3679 H       1  UNL1        0.2105
     26 C         138.1894  143.9569  163.2993 C.3     1  UNL1        0.0068
     27 C         137.6605  142.6839  162.7081 C.3     1  UNL1        0.0487
     28 N         138.6353  139.5893  162.3576 N.pl3   1  UNL1       -0.2509
     29 C         137.7632  138.3980  162.0917 C.3     1  UNL1        0.1207
     30 C         139.3853  139.6956  163.6522 C.ar    1  UNL1        0.1685
     31 N         138.9580  140.4806  164.8568 N.ar    1  UNL1       -0.2230
     32 C         140.0029  140.3058  165.9186 C.ar    1  UNL1        0.0989
     33 C         141.0760  139.4128  165.3703 C.ar    1  UNL1        0.1179
     34 S         140.6943  139.0356  163.9695 S.2     1  UNL1       -0.0408
     35 C         139.9789  140.9168  167.2883 C.ar    1  UNL1        0.0190
     36 C         139.3693  140.1651  168.4343 C.ar    1  UNL1        0.0038
     37 C         139.3453  140.7761  169.8040 C.ar    1  UNL1        0.0297
     38 C         139.9309  142.1388  170.0278 C.ar    1  UNL1        0.1401
     39 F         139.9069  142.7498  171.3975 F       1  UNL1       -0.2042
     40 C         140.5406  142.8905  168.8818 C.ar    1  UNL1        0.0297
     41 C         140.5646  142.2795  167.5121 C.ar    1  UNL1        0.0038
     42 C         142.3137  138.9738  166.0954 C.1     1  UNL1        0.1086
     43 N         143.5512  138.5347  166.8204 N.1     1  UNL1       -0.1903
@<TRIPOS>BOND
     1    26    27    1
     2    27     1    1
     3     1     2   ar
     4     2     3   ar
     5     3     4   ar
     6     4     5    1
     7     4     6   ar
     8     6     7   ar
     9     7    11    1
    10    11    12    1
    11    12    13    1
    12    13    14    1
    13    14    17    1
    14    17    18    1
    15    18    19    2
    16    18    20   am
    17    20    21    1
    18    21    22    1
    19    22    23    1
    20    22    24    1
    21    14    15    1
    22    15    16    1
    23     7     8   ar
    24     8     9   ar
    25     9    10   ar
    26    10    28    1
    27    28    29    1
    28    28    30    1
    29    30    31   ar
    30    31    32   ar
    31    32    35    1
    32    35    36   ar
    33    36    37   ar
    34    37    38   ar
    35    38    39    1
    36    38    40   ar
    37    40    41   ar
    38    32    33   ar
    39    33    42    1
    40    42    43    3
    41    33    34   ar
    42    10     1   ar
    43    34    30   ar
    44     9     3   ar
    45    41    35   ar
    46    16    11    1
    47    24    20    1
    48    23    25    1
@<TRIPOS>MOLECULE
*****
 43 48 0 0 0
SMALL
GASTEIGER

@<TRIPOS>ATOM
      1 C         145.6410  140.5413  155.3592 C.ar    1  UNL1        0.0910
      2 N         144.9619  139.2910  154.8844 N.ar    1  UNL1       -0.2298
      3 C         143.9784  138.8698  155.9357 C.ar    1  UNL1        0.1443
      4 C         143.0272  137.7127  156.0143 C.ar    1  UNL1        0.0139
      5 C         142.9559  136.7227  154.8897 C.3     1  UNL1        0.0342
      6 C         142.1472  137.5456  157.2175 C.ar    1  UNL1        0.0148
      7 C         142.2185  138.5356  158.3421 C.ar    1  UNL1        0.0656
      8 C         143.1697  139.6928  158.2635 C.ar    1  UNL1        0.0970
      9 N         144.0496  139.8598  157.0603 N.ar    1  UNL1       -0.2764
     10 C         145.0772  140.8929  156.7040 C.ar    1  UNL1        0.1365
     11 N         141.3384  138.3685  159.5453 N.pl3   1  UNL1       -0.3035
     12 C         139.8465  138.3851  159.3914 C.3     1  UNL1        0.1082
     13 C         138.9665  138.2179  160.5947 C.3     1  UNL1        0.0942
     14 N         139.5785  138.0343  161.9518 N.3     1  UNL1       -0.2620
     15 C         141.0705  138.0177  162.1056 C.3     1  UNL1        0.0942
     16 C         141.9505  138.1848  160.9024 C.3     1  UNL1        0.1082
     17 C         138.6985  137.8671  163.1550 C.3     1  UNL1        0.1587
     18 C         138.4759  139.0209  164.0873 C.2     1  UNL1        0.2422
     19 O         138.5700  138.8158  165.5702 O.2     1  UNL1       -0.2734
     20 N         138.1590  140.3798  163.5367 N.am    1  UNL1       -0.2733
     21 C         137.8825  141.7279  164.1334 C.3     1  UNL1        0.1244
     22 C         137.7109  142.3014  162.7580 C.3     1  UNL1        0.1500
     23 O         137.3941  143.6602  162.2074 O.3     1  UNL1       -0.3810
     24 C         137.9875  140.9533  162.1613 C.3     1  UNL1        0.1244
     25 H         137.2806  144.2871  162.9388 H       1  UNL1        0.2105
     26 C         146.6602  141.3804  153.1215 C.3     1  UNL1        0.0068
     27 C         146.6983  141.3059  154.6191 C.3     1  UNL1        0.0487
     28 N         145.4717  142.0707  157.5449 N.pl3   1  UNL1       -0.2509
     29 C         146.7079  142.8513  157.2095 C.3     1  UNL1        0.1207
     30 C         144.6300  142.4680  158.7212 C.ar    1  UNL1        0.1685
     31 N         144.9754  142.2538  160.1650 N.ar    1  UNL1       -0.2230
     32 C         143.8540  142.8027  160.9963 C.ar    1  UNL1        0.0989
     33 C         142.8155  143.3562  160.0663 C.ar    1  UNL1        0.1179
     34 S         143.2951  143.1494  158.6601 S.2     1  UNL1       -0.0408
     35 C         143.7834  142.7988  162.4947 C.ar    1  UNL1        0.0190
     36 C         143.3190  141.5710  163.2204 C.ar    1  UNL1        0.0038
     37 C         143.2485  141.5671  164.7188 C.ar    1  UNL1        0.0297
     38 C         143.6423  142.7910  165.4914 C.ar    1  UNL1        0.1401
     39 F         143.5718  142.7871  166.9897 F       1  UNL1       -0.2042
     40 C         144.1067  144.0188  164.7656 C.ar    1  UNL1        0.0297
     41 C         144.1773  144.0227  163.2672 C.ar    1  UNL1        0.0038
     42 C         141.5240  144.0031  160.4711 C.1     1  UNL1        0.1086
     43 N         140.2326  144.6499  160.8759 N.1     1  UNL1       -0.1903
@<TRIPOS>BOND
     1    26    27    1
     2    27     1    1
     3     1     2   ar
     4     2     3   ar
     5     3     4   ar
     6     4     5    1
     7     4     6   ar
     8     6     7   ar
     9     7    11    1
    10    11    12    1
    11    12    13    1
    12    13    14    1
    13    14    17    1
    14    17    18    1
    15    18    19    2
    16    18    20   am
    17    20    21    1
    18    21    22    1
    19    22    23    1
    20    22    24    1
    21    14    15    1
    22    15    16    1
    23     7     8   ar
    24     8     9   ar
    25     9    10   ar
    26    10    28    1
    27    28    29    1
    28    28    30    1
    29    30    31   ar
    30    31    32   ar
    31    32    35    1
    32    35    36   ar
    33    36    37   ar
    34    37    38   ar
    35    38    39    1
    36    38    40   ar
    37    40    41   ar
    38    32    33   ar
    39    33    42    1
    40    42    43    3
    41    33    34   ar
    42    10     1   ar
    43    34    30   ar
    44     9     3   ar
    45    41    35   ar
    46    16    11    1
    47    24    20    1
    48    23    25    1
