@<TRIPOS>MOLECULE
*****
 38 42 0 0 0
SMALL
GASTEIGER

@<TRIPOS>ATOM
      1 O         142.4873  144.6553  160.7234 O.2     1  UNL1       -0.2744
      2 C         141.1807  144.9154  161.4127 C.2     1  UNL1        0.2320
      3 N         139.9029  144.9038  160.6271 N.am    1  UNL1       -0.2639
      4 H         139.0454  145.0745  161.0795 H       1  UNL1        0.1567
      5 C         139.9317  144.6321  159.1523 C.ar    1  UNL1        0.1655
      6 N         140.3515  145.5994  158.0855 N.ar    1  UNL1       -0.2239
      7 C         140.2251  144.9105  156.7591 C.ar    1  UNL1        0.0913
      8 C         139.7271  143.5173  157.0060 C.ar    1  UNL1        0.0573
      9 S         139.5458  143.3452  158.4851 S.2     1  UNL1       -0.0508
     10 C         140.5411  145.5096  155.4207 C.ar    1  UNL1        0.0404
     11 C         141.3294  144.8545  154.3255 C.ar    1  UNL1        0.1021
     12 N         141.3997  145.8090  153.1705 N.ar    1  UNL1       -0.2269
     13 C         140.6550  147.0539  153.5519 C.ar    1  UNL1        0.1407
     14 N         140.3915  148.3321  152.8125 N.ar    1  UNL1       -0.3356
     15 C         139.5973  149.4252  153.4638 C.ar    1  UNL1        0.1035
     16 C         139.0666  149.2402  154.8545 C.ar    1  UNL1        0.1572
     17 F         138.2724  150.3334  155.5058 F       1  UNL1       -0.2026
     18 C         139.3301  147.9620  155.5939 C.ar    1  UNL1        0.0343
     19 C         140.1243  146.8689  154.9426 C.ar    1  UNL1        0.0392
     20 H         140.7398  148.4536  151.8997 H       1  UNL1        0.1675
     21 C         141.1518  145.1871  162.8876 C.3     1  UNL1        0.1118
     22 C         142.0219  144.3906  163.8141 C.ar    1  UNL1       -0.0101
     23 C         143.4451  144.8037  164.0469 C.ar    1  UNL1       -0.0036
     24 C         144.3153  144.0071  164.9734 C.ar    1  UNL1        0.0028
     25 C         143.7623  142.7976  165.6672 C.ar    1  UNL1        0.0369
     26 C         142.3392  142.3847  165.4344 C.ar    1  UNL1        0.1382
     27 C         141.4690  143.1811  164.5080 C.ar    1  UNL1        0.0331
     28 O         141.7862  141.1752  166.1282 O.3     1  UNL1       -0.4755
     29 C         140.7387  140.3382  165.4557 C.3     1  UNL1        0.2054
     30 C         139.3703  140.2216  166.0591 C.3     1  UNL1        0.0473
     31 C         138.1604  140.1872  165.1732 C.3     1  UNL1        0.0039
     32 C         138.0076  141.1952  164.0730 C.3     1  UNL1        0.0029
     33 C         137.8045  142.6437  164.4058 C.3     1  UNL1        0.0171
     34 C         137.6517  143.6518  163.3056 C.3     1  UNL1        0.0686
     35 N         137.7020  143.2114  161.8726 N.3     1  UNL1       -0.2975
     36 C         137.9051  141.7629  161.5398 C.3     1  UNL1        0.0686
     37 C         138.0579  140.7548  162.6400 C.3     1  UNL1        0.0171
     38 H         138.4665  143.7244  161.4335 H       1  UNL1        0.1232
@<TRIPOS>BOND
     1     1     2    2
     2     2    21    1
     3    21    22    1
     4    22    23   ar
     5    23    24   ar
     6    24    25   ar
     7    25    26   ar
     8    26    28    1
     9    28    29    1
    10    29    30    1
    11    30    31    1
    12    31    32    1
    13    32    33    1
    14    33    34    1
    15    34    35    1
    16    35    36    1
    17    36    37    1
    18    26    27   ar
    19     2     3   am
    20     3     5    1
    21     5     6   ar
    22     6     7   ar
    23     7    10    1
    24    10    11   ar
    25    11    12   ar
    26    12    13   ar
    27    13    14   ar
    28    14    15   ar
    29    15    16   ar
    30    16    17    1
    31    16    18   ar
    32    18    19   ar
    33     7     8   ar
    34     8     9   ar
    35    27    22   ar
    36     9     5   ar
    37    37    32    1
    38    19    10   ar
    39    19    13    1
    40    35    38    1
    41     3     4    1
    42    14    20    1
@<TRIPOS>MOLECULE
*****
 38 42 0 0 0
SMALL
GASTEIGER

@<TRIPOS>ATOM
      1 O         140.1394  138.0778  161.7684 O.2     1  UNL1       -0.2744
      2 C         141.3094  137.6478  162.6028 C.2     1  UNL1        0.2320
      3 N         142.7011  137.7514  162.0528 N.am    1  UNL1       -0.2639
      4 H         143.4691  137.4693  162.6005 H       1  UNL1        0.1567
      5 C         142.9228  138.2849  160.6686 C.ar    1  UNL1        0.1655
      6 N         142.6395  137.5578  159.3876 N.ar    1  UNL1       -0.2239
      7 C         143.0083  138.4627  158.2496 C.ar    1  UNL1        0.0913
      8 C         143.5195  139.7492  158.8272 C.ar    1  UNL1        0.0573
      9 S         143.4667  139.6393  160.3223 S.2     1  UNL1       -0.0508
     10 C         142.8871  138.1382  156.7901 C.ar    1  UNL1        0.0404
     11 C         142.7924  139.1322  155.6708 C.ar    1  UNL1        0.1021
     12 N         142.6862  138.3710  154.3827 N.ar    1  UNL1       -0.2269
     13 C         142.7152  136.9065  154.7059 C.ar    1  UNL1        0.1407
     14 N         142.6446  135.6855  153.8376 N.ar    1  UNL1       -0.3356
     15 C         142.6982  134.3205  154.4572 C.ar    1  UNL1        0.1035
     16 C         142.8224  134.1766  155.9451 C.ar    1  UNL1        0.1572
     17 F         142.8760  132.8116  156.5647 F       1  UNL1       -0.2026
     18 C         142.8930  135.3977  156.8134 C.ar    1  UNL1        0.0343
     19 C         142.8394  136.7626  156.1938 C.ar    1  UNL1        0.0392
     20 H         142.5631  135.7799  152.8610 H       1  UNL1        0.1675
     21 C         141.0878  137.1143  163.9871 C.3     1  UNL1        0.1118
     22 C         140.3890  137.9569  165.0126 C.ar    1  UNL1       -0.0101
     23 C         138.9014  137.8573  165.1776 C.ar    1  UNL1       -0.0036
     24 C         138.2025  138.6999  166.2032 C.ar    1  UNL1        0.0028
     25 C         138.9912  139.6420  167.0637 C.ar    1  UNL1        0.0369
     26 C         140.4788  139.7415  166.8987 C.ar    1  UNL1        0.1382
     27 C         141.1777  138.8990  165.8732 C.ar    1  UNL1        0.0331
     28 O         141.2676  140.6835  167.7591 O.3     1  UNL1       -0.4755
     29 C         142.0629  141.7879  167.1284 C.3     1  UNL1        0.2054
     30 C         141.4898  142.5633  165.9794 C.3     1  UNL1        0.0473
     31 C         140.1239  143.1727  166.0928 C.3     1  UNL1        0.0039
     32 C         139.2805  143.3564  164.8661 C.3     1  UNL1        0.0029
     33 C         139.3262  144.6521  164.1117 C.3     1  UNL1        0.0171
     34 C         138.4828  144.8359  162.8849 C.3     1  UNL1        0.0686
     35 N         137.5936  143.7241  162.4126 N.3     1  UNL1       -0.2975
     36 C         137.5478  142.4283  163.1671 C.3     1  UNL1        0.0686
     37 C         138.3913  142.2446  164.3938 C.3     1  UNL1        0.0171
     38 H         137.8825  143.5003  161.4603 H       1  UNL1        0.1232
@<TRIPOS>BOND
     1     1     2    2
     2     2    21    1
     3    21    22    1
     4    22    23   ar
     5    23    24   ar
     6    24    25   ar
     7    25    26   ar
     8    26    28    1
     9    28    29    1
    10    29    30    1
    11    30    31    1
    12    31    32    1
    13    32    33    1
    14    33    34    1
    15    34    35    1
    16    35    36    1
    17    36    37    1
    18    26    27   ar
    19     2     3   am
    20     3     5    1
    21     5     6   ar
    22     6     7   ar
    23     7    10    1
    24    10    11   ar
    25    11    12   ar
    26    12    13   ar
    27    13    14   ar
    28    14    15   ar
    29    15    16   ar
    30    16    17    1
    31    16    18   ar
    32    18    19   ar
    33     7     8   ar
    34     8     9   ar
    35    27    22   ar
    36     9     5   ar
    37    37    32    1
    38    19    10   ar
    39    19    13    1
    40    35    38    1
    41     3     4    1
    42    14    20    1
@<TRIPOS>MOLECULE
*****
 38 42 0 0 0
SMALL
GASTEIGER

@<TRIPOS>ATOM
      1 O         144.4659  138.5952  161.2262 O.2     1  UNL1       -0.2744
      2 C         144.1042  140.0447  161.3605 C.2     1  UNL1        0.2320
      3 N         143.5715  140.7974  160.1775 N.am    1  UNL1       -0.2639
      4 H         143.3340  141.7488  160.2656 H       1  UNL1        0.1567
      5 C         143.4005  140.1007  158.8602 C.ar    1  UNL1        0.1655
      6 N         142.5390  138.9000  158.6031 N.ar    1  UNL1       -0.2239
      7 C         142.6669  138.5395  157.1528 C.ar    1  UNL1        0.0913
      8 C         143.6076  139.5175  156.5134 C.ar    1  UNL1        0.0573
      9 S         144.0609  140.4823  157.5686 S.2     1  UNL1       -0.0508
     10 C         141.9757  137.4010  156.4629 C.ar    1  UNL1        0.0404
     11 C         140.7942  137.5127  155.5454 C.ar    1  UNL1        0.1021
     12 N         140.4330  136.1316  155.0848 N.ar    1  UNL1       -0.2269
     13 C         141.3911  135.1664  155.7176 C.ar    1  UNL1        0.1407
     14 N         141.5186  133.6746  155.6282 N.ar    1  UNL1       -0.3356
     15 C         142.5995  132.9672  156.3906 C.ar    1  UNL1        0.1035
     16 C         143.5530  133.7518  157.2423 C.ar    1  UNL1        0.1572
     17 F         144.6340  133.0444  158.0046 F       1  UNL1       -0.2026
     18 C         143.4256  135.2437  157.3316 C.ar    1  UNL1        0.0343
     19 C         142.3446  135.9510  156.5692 C.ar    1  UNL1        0.0392
     20 H         140.8928  133.1596  155.0693 H       1  UNL1        0.1675
     21 C         144.2752  140.7415  162.6778 C.3     1  UNL1        0.1118
     22 C         143.6375  140.1776  163.9129 C.ar    1  UNL1       -0.0101
     23 C         144.3532  139.1319  164.7157 C.ar    1  UNL1       -0.0036
     24 C         143.7155  138.5680  165.9509 C.ar    1  UNL1        0.0028
     25 C         142.3623  139.0498  166.3831 C.ar    1  UNL1        0.0369
     26 C         141.6468  140.0954  165.5802 C.ar    1  UNL1        0.1382
     27 C         142.2843  140.6593  164.3451 C.ar    1  UNL1        0.0331
     28 O         140.2936  140.5771  166.0124 O.3     1  UNL1       -0.4755
     29 C         139.3410  139.6335  166.6848 C.3     1  UNL1        0.2054
     30 C         138.3734  138.8332  165.8641 C.3     1  UNL1        0.0473
     31 C         138.8501  137.6324  165.1022 C.3     1  UNL1        0.0039
     32 C         139.3810  137.7909  163.7082 C.3     1  UNL1        0.0029
     33 C         138.4761  138.2666  162.6106 C.3     1  UNL1        0.0171
     34 C         139.0069  138.4252  161.2166 C.3     1  UNL1        0.0686
     35 N         140.4427  138.1080  160.9203 N.3     1  UNL1       -0.2975
     36 C         141.3477  137.6323  162.0180 C.3     1  UNL1        0.0686
     37 C         140.8168  137.4737  163.4119 C.3     1  UNL1        0.0171
     38 H         140.8601  138.9585  160.5423 H       1  UNL1        0.1232
@<TRIPOS>BOND
     1     1     2    2
     2     2    21    1
     3    21    22    1
     4    22    23   ar
     5    23    24   ar
     6    24    25   ar
     7    25    26   ar
     8    26    28    1
     9    28    29    1
    10    29    30    1
    11    30    31    1
    12    31    32    1
    13    32    33    1
    14    33    34    1
    15    34    35    1
    16    35    36    1
    17    36    37    1
    18    26    27   ar
    19     2     3   am
    20     3     5    1
    21     5     6   ar
    22     6     7   ar
    23     7    10    1
    24    10    11   ar
    25    11    12   ar
    26    12    13   ar
    27    13    14   ar
    28    14    15   ar
    29    15    16   ar
    30    16    17    1
    31    16    18   ar
    32    18    19   ar
    33     7     8   ar
    34     8     9   ar
    35    27    22   ar
    36     9     5   ar
    37    37    32    1
    38    19    10   ar
    39    19    13    1
    40    35    38    1
    41     3     4    1
    42    14    20    1
@<TRIPOS>MOLECULE
*****
 38 42 0 0 0
SMALL
GASTEIGER

@<TRIPOS>ATOM
      1 O         141.9683  140.0088  161.0544 O.2     1  UNL1       -0.2744
      2 C         140.7413  140.4281  160.3003 C.2     1  UNL1        0.2320
      3 N         139.3807  140.1406  160.8626 N.am    1  UNL1       -0.2639
      4 H         138.5754  140.4158  160.3677 H       1  UNL1        0.1567
      5 C         139.2472  139.4339  162.1788 C.ar    1  UNL1        0.1655
      6 N         139.1119  140.0888  163.5215 N.ar    1  UNL1       -0.2239
      7 C         139.0065  139.0079  164.5561 C.ar    1  UNL1        0.0913
      8 C         139.0766  137.6848  163.8529 C.ar    1  UNL1        0.0573
      9 S         139.2254  137.9481  162.3837 S.2     1  UNL1       -0.0508
     10 C         138.8572  139.2138  166.0344 C.ar    1  UNL1        0.0404
     11 C         137.7972  138.6087  166.9062 C.ar    1  UNL1        0.1021
     12 N         138.0266  139.0819  168.3110 N.ar    1  UNL1       -0.2269
     13 C         139.2284  139.9795  168.3074 C.ar    1  UNL1        0.1407
     14 N         139.9216  140.7331  169.4035 N.ar    1  UNL1       -0.3356
     15 C         141.1281  141.5682  169.0925 C.ar    1  UNL1        0.1035
     16 C         141.6415  141.6498  167.6855 C.ar    1  UNL1        0.1572
     17 F         142.8481  142.4850  167.3746 F       1  UNL1       -0.2026
     18 C         140.9483  140.8962  166.5894 C.ar    1  UNL1        0.0343
     19 C         139.7417  140.0610  166.9003 C.ar    1  UNL1        0.0392
     20 H         139.5847  140.6796  170.3270 H       1  UNL1        0.1675
     21 C         140.8749  141.1348  158.9840 C.3     1  UNL1        0.1118
     22 C         140.9848  142.6302  158.9434 C.ar    1  UNL1       -0.0101
     23 C         141.7464  143.2964  157.8360 C.ar    1  UNL1       -0.0036
     24 C         141.8563  144.7919  157.7954 C.ar    1  UNL1        0.0028
     25 C         141.2046  145.6211  158.8621 C.ar    1  UNL1        0.0369
     26 C         140.4430  144.9549  159.9694 C.ar    1  UNL1        0.1382
     27 C         140.3331  143.4595  160.0101 C.ar    1  UNL1        0.0331
     28 O         139.7914  145.7840  161.0360 O.3     1  UNL1       -0.4755
     29 C         140.0271  145.4651  162.4826 C.3     1  UNL1        0.2054
     30 C         141.4277  145.3747  163.0122 C.3     1  UNL1        0.0473
     31 C         141.8864  144.1290  163.7106 C.3     1  UNL1        0.0039
     32 C         143.1439  143.4412  163.2685 C.3     1  UNL1        0.0029
     33 C         144.0498  142.8093  164.2834 C.3     1  UNL1        0.0171
     34 C         145.3073  142.1214  163.8413 C.3     1  UNL1        0.0686
     35 N         145.6591  142.0655  162.3842 N.3     1  UNL1       -0.2975
     36 C         144.7532  142.6975  161.3692 C.3     1  UNL1        0.0686
     37 C         143.4957  143.3853  161.8114 C.3     1  UNL1        0.0171
     38 H         145.7350  141.0788  162.1373 H       1  UNL1        0.1232
@<TRIPOS>BOND
     1     1     2    2
     2     2    21    1
     3    21    22    1
     4    22    23   ar
     5    23    24   ar
     6    24    25   ar
     7    25    26   ar
     8    26    28    1
     9    28    29    1
    10    29    30    1
    11    30    31    1
    12    31    32    1
    13    32    33    1
    14    33    34    1
    15    34    35    1
    16    35    36    1
    17    36    37    1
    18    26    27   ar
    19     2     3   am
    20     3     5    1
    21     5     6   ar
    22     6     7   ar
    23     7    10    1
    24    10    11   ar
    25    11    12   ar
    26    12    13   ar
    27    13    14   ar
    28    14    15   ar
    29    15    16   ar
    30    16    17    1
    31    16    18   ar
    32    18    19   ar
    33     7     8   ar
    34     8     9   ar
    35    27    22   ar
    36     9     5   ar
    37    37    32    1
    38    19    10   ar
    39    19    13    1
    40    35    38    1
    41     3     4    1
    42    14    20    1
@<TRIPOS>MOLECULE
*****
 38 42 0 0 0
SMALL
GASTEIGER

@<TRIPOS>ATOM
      1 O         143.3141  138.8110  164.7776 O.2     1  UNL1       -0.2744
      2 C         142.7685  139.0402  163.3993 C.2     1  UNL1        0.2320
      3 N         141.2995  139.2708  163.2029 N.am    1  UNL1       -0.2639
      4 H         140.9414  139.4213  162.2983 H       1  UNL1        0.1567
      5 C         140.3759  139.2723  164.3848 C.ar    1  UNL1        0.1655
      6 N         140.7134  139.7474  165.7670 N.ar    1  UNL1       -0.2239
      7 C         139.4988  139.5676  166.6285 C.ar    1  UNL1        0.0913
      8 C         138.4105  138.9814  165.7789 C.ar    1  UNL1        0.0573
      9 S         138.9526  138.7988  164.3922 S.2     1  UNL1       -0.0508
     10 C         139.3913  139.9134  168.0842 C.ar    1  UNL1        0.0404
     11 C         138.2524  139.5574  168.9931 C.ar    1  UNL1        0.1021
     12 N         138.5611  140.0999  170.3571 N.ar    1  UNL1       -0.2269
     13 C         139.8907  140.7911  170.2911 C.ar    1  UNL1        0.1407
     14 N         140.7005  141.5105  171.3287 N.ar    1  UNL1       -0.3356
     15 C         142.0233  142.1147  170.9615 C.ar    1  UNL1        0.1035
     16 C         142.5365  141.9994  169.5568 C.ar    1  UNL1        0.1572
     17 F         143.8594  142.6037  169.1896 F       1  UNL1       -0.2026
     18 C         141.7267  141.2800  168.5192 C.ar    1  UNL1        0.0343
     19 C         140.4038  140.6758  168.8864 C.ar    1  UNL1        0.0392
     20 H         140.3637  141.5862  172.2507 H       1  UNL1        0.1675
     21 C         143.6921  139.0388  162.2173 C.3     1  UNL1        0.1118
     22 C         143.8446  140.2761  161.3832 C.ar    1  UNL1       -0.0101
     23 C         143.8243  140.1787  159.8864 C.ar    1  UNL1       -0.0036
     24 C         143.9768  141.4161  159.0522 C.ar    1  UNL1        0.0028
     25 C         144.1497  142.7507  159.7148 C.ar    1  UNL1        0.0369
     26 C         144.1701  142.8480  161.2115 C.ar    1  UNL1        0.1382
     27 C         144.0175  141.6107  162.0457 C.ar    1  UNL1        0.0331
     28 O         144.3429  144.1826  161.8741 O.3     1  UNL1       -0.4755
     29 C         144.0374  144.3402  163.3342 C.3     1  UNL1        0.2054
     30 C         142.8046  145.0769  163.7673 C.3     1  UNL1        0.0473
     31 C         141.5791  145.0615  162.9026 C.3     1  UNL1        0.0039
     32 C         140.3114  144.4402  163.4096 C.3     1  UNL1        0.0029
     33 C         139.0078  144.7329  162.7278 C.3     1  UNL1        0.0171
     34 C         137.7400  144.1117  163.2347 C.3     1  UNL1        0.0686
     35 N         137.7759  143.1978  164.4236 N.3     1  UNL1       -0.2975
     36 C         139.0796  142.9050  165.1055 C.3     1  UNL1        0.0686
     37 C         140.3473  143.5263  164.5985 C.3     1  UNL1        0.0171
     38 H         137.3959  142.3019  164.1179 H       1  UNL1        0.1232
@<TRIPOS>BOND
     1     1     2    2
     2     2    21    1
     3    21    22    1
     4    22    23   ar
     5    23    24   ar
     6    24    25   ar
     7    25    26   ar
     8    26    28    1
     9    28    29    1
    10    29    30    1
    11    30    31    1
    12    31    32    1
    13    32    33    1
    14    33    34    1
    15    34    35    1
    16    35    36    1
    17    36    37    1
    18    26    27   ar
    19     2     3   am
    20     3     5    1
    21     5     6   ar
    22     6     7   ar
    23     7    10    1
    24    10    11   ar
    25    11    12   ar
    26    12    13   ar
    27    13    14   ar
    28    14    15   ar
    29    15    16   ar
    30    16    17    1
    31    16    18   ar
    32    18    19   ar
    33     7     8   ar
    34     8     9   ar
    35    27    22   ar
    36     9     5   ar
    37    37    32    1
    38    19    10   ar
    39    19    13    1
    40    35    38    1
    41     3     4    1
    42    14    20    1
@<TRIPOS>MOLECULE
*****
 38 42 0 0 0
SMALL
GASTEIGER

@<TRIPOS>ATOM
      1 O         139.9973  137.9944  158.1941 O.2     1  UNL1       -0.2744
      2 C         141.0297  139.0562  158.4316 C.2     1  UNL1        0.2320
      3 N         142.4407  138.8476  157.9674 N.am    1  UNL1       -0.2639
      4 H         143.1184  139.5445  158.1233 H       1  UNL1        0.1567
      5 C         142.8193  137.5772  157.2657 C.ar    1  UNL1        0.1655
      6 N         142.9303  136.2208  157.8965 N.ar    1  UNL1       -0.2239
      7 C         143.3329  135.2453  156.8306 C.ar    1  UNL1        0.0913
      8 C         143.4708  135.9987  155.5409 C.ar    1  UNL1        0.0573
      9 S         143.1533  137.4399  155.8098 S.2     1  UNL1       -0.0508
     10 C         143.5581  133.7745  157.0209 C.ar    1  UNL1        0.0404
     11 C         144.5866  133.1486  157.9155 C.ar    1  UNL1        0.1021
     12 N         144.4585  131.6587  157.7974 N.ar    1  UNL1       -0.2269
     13 C         143.3509  131.3639  156.8298 C.ar    1  UNL1        0.1407
     14 N         142.7772  130.0737  156.3237 N.ar    1  UNL1       -0.3356
     15 C         141.6470  130.0912  155.3377 C.ar    1  UNL1        0.1035
     16 C         141.0905  131.3988  154.8577 C.ar    1  UNL1        0.1572
     17 F         139.9603  131.4162  153.8716 F       1  UNL1       -0.2026
     18 C         141.6643  132.6890  155.3638 C.ar    1  UNL1        0.0343
     19 C         142.7944  132.6716  156.3498 C.ar    1  UNL1        0.0392
     20 H         143.1424  129.2154  156.6388 H       1  UNL1        0.1675
     21 C         140.6512  140.3268  159.1334 C.3     1  UNL1        0.1118
     22 C         141.0367  140.5347  160.5680 C.ar    1  UNL1       -0.0101
     23 C         140.7630  141.8501  161.2350 C.ar    1  UNL1       -0.0036
     24 C         141.1486  142.0581  162.6697 C.ar    1  UNL1        0.0028
     25 C         141.8079  140.9507  163.4373 C.ar    1  UNL1        0.0369
     26 C         142.0816  139.6354  162.7702 C.ar    1  UNL1        0.1382
     27 C         141.6960  139.4274  161.3356 C.ar    1  UNL1        0.0331
     28 O         142.7409  138.5280  163.5377 O.3     1  UNL1       -0.4755
     29 C         141.9907  137.8205  164.6271 C.3     1  UNL1        0.2054
     30 C         140.6308  137.2499  164.3529 C.3     1  UNL1        0.0473
     31 C         139.4028  138.0153  164.7479 C.3     1  UNL1        0.0039
     32 C         138.6706  138.8365  163.7282 C.3     1  UNL1        0.0029
     33 C         138.2118  140.2228  164.0709 C.3     1  UNL1        0.0171
     34 C         137.4796  141.0441  163.0513 C.3     1  UNL1        0.0686
     35 N         137.2063  140.4789  161.6890 N.3     1  UNL1       -0.2975
     36 C         137.6652  139.0924  161.3463 C.3     1  UNL1        0.0686
     37 C         138.3973  138.2713  162.3659 C.3     1  UNL1        0.0171
     38 H         137.6433  141.1084  161.0159 H       1  UNL1        0.1232
@<TRIPOS>BOND
     1     1     2    2
     2     2    21    1
     3    21    22    1
     4    22    23   ar
     5    23    24   ar
     6    24    25   ar
     7    25    26   ar
     8    26    28    1
     9    28    29    1
    10    29    30    1
    11    30    31    1
    12    31    32    1
    13    32    33    1
    14    33    34    1
    15    34    35    1
    16    35    36    1
    17    36    37    1
    18    26    27   ar
    19     2     3   am
    20     3     5    1
    21     5     6   ar
    22     6     7   ar
    23     7    10    1
    24    10    11   ar
    25    11    12   ar
    26    12    13   ar
    27    13    14   ar
    28    14    15   ar
    29    15    16   ar
    30    16    17    1
    31    16    18   ar
    32    18    19   ar
    33     7     8   ar
    34     8     9   ar
    35    27    22   ar
    36     9     5   ar
    37    37    32    1
    38    19    10   ar
    39    19    13    1
    40    35    38    1
    41     3     4    1
    42    14    20    1
@<TRIPOS>MOLECULE
*****
 38 42 0 0 0
SMALL
GASTEIGER

@<TRIPOS>ATOM
      1 O         140.5830  139.4873  162.4329 O.2     1  UNL1       -0.2744
      2 C         139.3381  140.3002  162.2345 C.2     1  UNL1        0.2320
      3 N         138.5047  140.6965  163.4170 N.am    1  UNL1       -0.2639
      4 H         137.6876  141.2300  163.2867 H       1  UNL1        0.1567
      5 C         138.9162  140.2800  164.7979 C.ar    1  UNL1        0.1655
      6 N         140.1609  140.7119  165.5150 N.ar    1  UNL1       -0.2239
      7 C         140.1693  140.0574  166.8645 C.ar    1  UNL1        0.0913
      8 C         138.9297  139.2208  166.9817 C.ar    1  UNL1        0.0573
      9 S         138.1553  139.3584  165.7045 S.2     1  UNL1       -0.0508
     10 C         141.2309  140.2121  167.9130 C.ar    1  UNL1        0.0404
     11 C         142.2972  139.2100  168.2426 C.ar    1  UNL1        0.1021
     12 N         143.1378  139.7747  169.3492 N.ar    1  UNL1       -0.2269
     13 C         142.5909  141.1258  169.7035 C.ar    1  UNL1        0.1407
     14 N         143.0139  142.1448  170.7196 N.ar    1  UNL1       -0.3356
     15 C         142.2583  143.4341  170.8482 C.ar    1  UNL1        0.1035
     16 C         141.0797  143.7045  169.9605 C.ar    1  UNL1        0.1572
     17 F         140.3241  144.9939  170.0891 F       1  UNL1       -0.2026
     18 C         140.6568  142.6855  168.9444 C.ar    1  UNL1        0.0343
     19 C         141.4124  141.3961  168.8158 C.ar    1  UNL1        0.0392
     20 H         143.7874  141.9674  171.3022 H       1  UNL1        0.1675
     21 C         138.9265  140.7167  160.8535 C.3     1  UNL1        0.1118
     22 C         139.6037  141.8774  160.1871 C.ar    1  UNL1       -0.0101
     23 C         138.9493  142.5597  159.0224 C.ar    1  UNL1       -0.0036
     24 C         139.6266  143.7205  158.3560 C.ar    1  UNL1        0.0028
     25 C         140.9582  144.1988  158.8541 C.ar    1  UNL1        0.0369
     26 C         141.6125  143.5165  160.0187 C.ar    1  UNL1        0.1382
     27 C         140.9353  142.3558  160.6852 C.ar    1  UNL1        0.0331
     28 O         142.9440  143.9948  160.5169 O.3     1  UNL1       -0.4755
     29 C         143.4075  143.6223  161.8940 C.3     1  UNL1        0.2054
     30 C         143.6799  144.6928  162.9089 C.3     1  UNL1        0.0473
     31 C         142.5790  145.1710  163.8085 C.3     1  UNL1        0.0039
     32 C         141.1496  145.0653  163.3659 C.3     1  UNL1        0.0029
     33 C         140.6274  145.9745  162.2933 C.3     1  UNL1        0.0171
     34 C         139.1980  145.8688  161.8507 C.3     1  UNL1        0.0686
     35 N         138.2910  144.8538  162.4807 N.3     1  UNL1       -0.2975
     36 C         138.8133  143.9445  163.5534 C.3     1  UNL1        0.0686
     37 C         140.2426  144.0503  163.9960 C.3     1  UNL1        0.0171
     38 H         137.9503  144.2558  161.7279 H       1  UNL1        0.1232
@<TRIPOS>BOND
     1     1     2    2
     2     2    21    1
     3    21    22    1
     4    22    23   ar
     5    23    24   ar
     6    24    25   ar
     7    25    26   ar
     8    26    28    1
     9    28    29    1
    10    29    30    1
    11    30    31    1
    12    31    32    1
    13    32    33    1
    14    33    34    1
    15    34    35    1
    16    35    36    1
    17    36    37    1
    18    26    27   ar
    19     2     3   am
    20     3     5    1
    21     5     6   ar
    22     6     7   ar
    23     7    10    1
    24    10    11   ar
    25    11    12   ar
    26    12    13   ar
    27    13    14   ar
    28    14    15   ar
    29    15    16   ar
    30    16    17    1
    31    16    18   ar
    32    18    19   ar
    33     7     8   ar
    34     8     9   ar
    35    27    22   ar
    36     9     5   ar
    37    37    32    1
    38    19    10   ar
    39    19    13    1
    40    35    38    1
    41     3     4    1
    42    14    20    1
@<TRIPOS>MOLECULE
*****
 38 42 0 0 0
SMALL
GASTEIGER

@<TRIPOS>ATOM
      1 O         141.1231  137.5025  161.8607 O.2     1  UNL1       -0.2744
      2 C         139.7467  137.9634  162.2391 C.2     1  UNL1        0.2320
      3 N         138.9941  138.8967  161.3377 N.am    1  UNL1       -0.2639
      4 H         138.0908  139.1992  161.5861 H       1  UNL1        0.1567
      5 C         139.6179  139.3692  160.0581 C.ar    1  UNL1        0.1655
      6 N         140.0414  138.5012  158.9104 N.ar    1  UNL1       -0.2239
      7 C         140.6129  139.3882  157.8444 C.ar    1  UNL1        0.0913
      8 C         140.5427  140.8046  158.3332 C.ar    1  UNL1        0.0573
      9 S         139.9277  140.7929  159.7013 S.2     1  UNL1       -0.0508
     10 C         141.1589  138.9380  156.5218 C.ar    1  UNL1        0.0404
     11 C         140.9671  139.6326  155.2063 C.ar    1  UNL1        0.1021
     12 N         141.6822  138.8379  154.1540 N.ar    1  UNL1       -0.2269
     13 C         142.3159  137.6522  154.8193 C.ar    1  UNL1        0.1407
     14 N         143.1456  136.5243  154.2815 N.ar    1  UNL1       -0.3356
     15 C         143.6519  135.4581  155.2072 C.ar    1  UNL1        0.1035
     16 C         143.3285  135.5200  156.6706 C.ar    1  UNL1        0.1572
     17 F         143.8349  134.4537  157.5963 F       1  UNL1       -0.2026
     18 C         142.4988  136.6479  157.2084 C.ar    1  UNL1        0.0343
     19 C         141.9925  137.7140  156.2827 C.ar    1  UNL1        0.0392
     20 H         143.3579  136.4837  153.3210 H       1  UNL1        0.1675
     21 C         139.1229  137.4909  163.5188 C.3     1  UNL1        0.1118
     22 C         139.3401  138.2604  164.7879 C.ar    1  UNL1       -0.0101
     23 C         138.2460  138.3442  165.8107 C.ar    1  UNL1       -0.0036
     24 C         138.4632  139.1137  167.0799 C.ar    1  UNL1        0.0028
     25 C         139.7745  139.7993  167.3262 C.ar    1  UNL1        0.0369
     26 C         140.8685  139.7155  166.3034 C.ar    1  UNL1        0.1382
     27 C         140.6513  138.9460  165.0343 C.ar    1  UNL1        0.0331
     28 O         142.1797  140.4011  166.5498 O.3     1  UNL1       -0.4755
     29 C         142.2212  141.8848  166.7664 C.3     1  UNL1        0.2054
     30 C         141.5727  142.8059  165.7759 C.3     1  UNL1        0.0473
     31 C         140.1333  143.1934  165.9428 C.3     1  UNL1        0.0039
     32 C         139.2287  143.2509  164.7476 C.3     1  UNL1        0.0029
     33 C         138.4949  142.0207  164.3026 C.3     1  UNL1        0.0171
     34 C         137.5902  142.0780  163.1074 C.3     1  UNL1        0.0686
     35 N         137.4196  143.3657  162.3572 N.3     1  UNL1       -0.2975
     36 C         138.1535  144.5960  162.8022 C.3     1  UNL1        0.0686
     37 C         139.0581  144.5385  163.9974 C.3     1  UNL1        0.0171
     38 H         136.4251  143.5911  162.3817 H       1  UNL1        0.1232
@<TRIPOS>BOND
     1     1     2    2
     2     2    21    1
     3    21    22    1
     4    22    23   ar
     5    23    24   ar
     6    24    25   ar
     7    25    26   ar
     8    26    28    1
     9    28    29    1
    10    29    30    1
    11    30    31    1
    12    31    32    1
    13    32    33    1
    14    33    34    1
    15    34    35    1
    16    35    36    1
    17    36    37    1
    18    26    27   ar
    19     2     3   am
    20     3     5    1
    21     5     6   ar
    22     6     7   ar
    23     7    10    1
    24    10    11   ar
    25    11    12   ar
    26    12    13   ar
    27    13    14   ar
    28    14    15   ar
    29    15    16   ar
    30    16    17    1
    31    16    18   ar
    32    18    19   ar
    33     7     8   ar
    34     8     9   ar
    35    27    22   ar
    36     9     5   ar
    37    37    32    1
    38    19    10   ar
    39    19    13    1
    40    35    38    1
    41     3     4    1
    42    14    20    1
@<TRIPOS>MOLECULE
*****
 38 42 0 0 0
SMALL
GASTEIGER

@<TRIPOS>ATOM
      1 O         137.8106  144.6602  162.5189 O.2     1  UNL1       -0.2744
      2 C         138.0788  143.1867  162.4360 C.2     1  UNL1        0.2320
      3 N         138.9933  142.6493  161.3754 N.am    1  UNL1       -0.2639
      4 H         139.1694  141.6822  161.3211 H       1  UNL1        0.1567
      5 C         139.6395  143.5854  160.3977 C.ar    1  UNL1        0.1655
      6 N         139.3973  143.6197  158.9178 N.ar    1  UNL1       -0.2239
      7 C         140.2495  144.7070  158.3335 C.ar    1  UNL1        0.0913
      8 C         141.0186  145.3448  159.4524 C.ar    1  UNL1        0.0573
      9 S         140.6416  144.6516  160.7281 S.2     1  UNL1       -0.0508
     10 C         140.3203  145.0895  156.8848 C.ar    1  UNL1        0.0404
     11 C         140.9029  144.2577  155.7808 C.ar    1  UNL1        0.1021
     12 N         140.7636  145.0251  154.4995 N.ar    1  UNL1       -0.2269
     13 C         140.0949  146.3311  154.8116 C.ar    1  UNL1        0.1407
     14 N         139.7002  147.4891  153.9439 N.ar    1  UNL1       -0.3356
     15 C         139.0315  148.6870  154.5504 C.ar    1  UNL1        0.1035
     16 C         138.7575  148.7268  156.0246 C.ar    1  UNL1        0.1572
     17 F         138.0888  149.9247  156.6311 F       1  UNL1       -0.2026
     18 C         139.1523  147.5687  156.8924 C.ar    1  UNL1        0.0343
     19 C         139.8210  146.3709  156.2859 C.ar    1  UNL1        0.0392
     20 H         139.8800  147.4630  152.9763 H       1  UNL1        0.1675
     21 C         137.4326  142.2506  163.4138 C.3     1  UNL1        0.1118
     22 C         138.2516  141.6171  164.4992 C.ar    1  UNL1       -0.0101
     23 C         137.9008  140.2478  165.0011 C.ar    1  UNL1       -0.0036
     24 C         138.7198  139.6142  166.0865 C.ar    1  UNL1        0.0028
     25 C         139.8895  140.3501  166.6699 C.ar    1  UNL1        0.0369
     26 C         140.2402  141.7193  166.1680 C.ar    1  UNL1        0.1382
     27 C         139.4213  142.3529  165.0826 C.ar    1  UNL1        0.0331
     28 O         141.4099  142.4552  166.7513 O.3     1  UNL1       -0.4755
     29 C         142.7543  142.3700  166.0916 C.3     1  UNL1        0.2054
     30 C         143.3368  141.0316  165.7457 C.3     1  UNL1        0.0473
     31 C         143.2790  140.5310  164.3330 C.3     1  UNL1        0.0039
     32 C         142.2115  139.5595  163.9247 C.3     1  UNL1        0.0029
     33 C         141.2290  139.9312  162.8539 C.3     1  UNL1        0.0171
     34 C         140.1614  138.9597  162.4456 C.3     1  UNL1        0.0686
     35 N         140.0764  137.6167  163.1080 N.3     1  UNL1       -0.2975
     36 C         141.0589  137.2450  164.1788 C.3     1  UNL1        0.0686
     37 C         142.1265  138.2164  164.5871 C.3     1  UNL1        0.0171
     38 H         140.1667  136.9182  162.3702 H       1  UNL1        0.1232
@<TRIPOS>BOND
     1     1     2    2
     2     2    21    1
     3    21    22    1
     4    22    23   ar
     5    23    24   ar
     6    24    25   ar
     7    25    26   ar
     8    26    28    1
     9    28    29    1
    10    29    30    1
    11    30    31    1
    12    31    32    1
    13    32    33    1
    14    33    34    1
    15    34    35    1
    16    35    36    1
    17    36    37    1
    18    26    27   ar
    19     2     3   am
    20     3     5    1
    21     5     6   ar
    22     6     7   ar
    23     7    10    1
    24    10    11   ar
    25    11    12   ar
    26    12    13   ar
    27    13    14   ar
    28    14    15   ar
    29    15    16   ar
    30    16    17    1
    31    16    18   ar
    32    18    19   ar
    33     7     8   ar
    34     8     9   ar
    35    27    22   ar
    36     9     5   ar
    37    37    32    1
    38    19    10   ar
    39    19    13    1
    40    35    38    1
    41     3     4    1
    42    14    20    1
