@<TRIPOS>MOLECULE
*****
 30 34 0 0 0
SMALL
GASTEIGER

@<TRIPOS>ATOM
      1 N         141.8007  138.3685  158.7283 N.pl3   1  UNL1       -0.2781
      2 C         140.3900  138.8597  158.5914 C.3     1  UNL1        0.0954
      3 C         139.9504  139.3846  159.9260 C.3     1  UNL1        0.0430
      4 C         138.8069  140.0126  160.6662 C.3     1  UNL1        0.0955
      5 N         139.2391  140.2340  162.0855 N.am    1  UNL1       -0.2759
      6 C         138.4069  140.8401  163.1762 C.2     1  UNL1        0.2527
      7 O         137.0043  141.2876  162.8888 O.2     1  UNL1       -0.2698
      8 C         140.6499  139.7428  162.2224 C.3     1  UNL1        0.0955
      9 C         141.0894  139.2179  160.8877 C.3     1  UNL1        0.0430
     10 C         142.2330  138.5899  160.1475 C.3     1  UNL1        0.0954
     11 C         144.9919  138.9255  154.6656 C.3     1  UNL1        0.0522
     12 C         144.2286  138.0408  155.6061 C.ar    1  UNL1        0.0634
     13 C         144.2976  136.5500  155.4559 C.ar    1  UNL1        0.0296
     14 C         143.5344  135.6653  156.3965 C.ar    1  UNL1        0.0634
     15 C         143.6033  134.1744  156.2463 C.3     1  UNL1        0.0522
     16 N         142.7020  136.2715  157.4872 N.ar    1  UNL1       -0.2180
     17 C         142.6330  137.7624  157.6375 C.ar    1  UNL1        0.2195
     18 N         143.3963  138.6471  156.6969 N.ar    1  UNL1       -0.2180
     19 C         138.9771  140.9988  164.5545 C.ar    1  UNL1        0.1003
     20 C         138.8399  139.8898  165.5551 C.ar    1  UNL1        0.1460
     21 F         138.1325  138.6221  165.1775 F       1  UNL1       -0.2040
     22 C         139.4101  140.0484  166.9335 C.ar    1  UNL1        0.0299
     23 C         140.1175  141.3160  167.3112 C.ar    1  UNL1        0.0039
     24 C         140.2547  142.4251  166.3105 C.ar    1  UNL1        0.0212
     25 C         139.6845  142.2664  164.9323 C.ar    1  UNL1        0.1094
     26 N         139.8217  143.3754  163.9316 N.ar    1  UNL1       -0.1476
     27 N         138.8592  144.5089  163.7341 N.ar    1  UNL1       -0.1447
     28 C         139.3881  145.3796  162.6333 C.ar    1  UNL1        0.1446
     29 C         140.6775  144.7844  162.1504 C.ar    1  UNL1        0.1446
     30 N         140.9454  143.5458  162.9528 N.ar    1  UNL1       -0.1447
@<TRIPOS>BOND
     1    11    12    1
     2    12    13   ar
     3    13    14   ar
     4    14    15    1
     5    14    16   ar
     6    16    17   ar
     7    17     1    1
     8     1     2    1
     9     3     2    1
    10     3     4    1
    11     4     5    1
    12     5     6   am
    13     6     7    2
    14     6    19    1
    15    19    20   ar
    16    20    21    1
    17    20    22   ar
    18    22    23   ar
    19    23    24   ar
    20    24    25   ar
    21    25    26    1
    22    26    27   ar
    23    27    28   ar
    24    28    29   ar
    25    29    30   ar
    26     5     8    1
    27     9     8    1
    28     9    10    1
    29    17    18   ar
    30    18    12   ar
    31    10     1    1
    32     9     3    1
    33    25    19   ar
    34    30    26   ar
@<TRIPOS>MOLECULE
*****
 30 34 0 0 0
SMALL
GASTEIGER

@<TRIPOS>ATOM
      1 N         143.2348  141.9877  161.5665 N.pl3   1  UNL1       -0.2781
      2 C         143.6655  140.7002  162.2043 C.3     1  UNL1        0.0954
      3 C         143.3145  140.7646  163.6612 C.3     1  UNL1        0.0430
      4 C         143.3637  140.0086  164.9558 C.3     1  UNL1        0.0955
      5 N         142.7465  140.8686  166.0186 N.am    1  UNL1       -0.2759
      6 C         142.5878  140.5050  167.4651 C.2     1  UNL1        0.2527
      7 O         143.0694  139.1737  167.9611 O.2     1  UNL1       -0.2698
      8 C         142.3158  142.1562  165.3807 C.3     1  UNL1        0.0955
      9 C         142.6669  142.0918  163.9238 C.3     1  UNL1        0.0430
     10 C         142.6176  142.8478  162.6292 C.3     1  UNL1        0.0954
     11 C         142.2467  145.1926  157.5975 C.3     1  UNL1        0.0522
     12 C         142.8995  143.9538  158.1354 C.ar    1  UNL1        0.0634
     13 C         143.7109  143.0786  157.2267 C.ar    1  UNL1        0.0296
     14 C         144.3636  141.8398  157.7645 C.ar    1  UNL1        0.0634
     15 C         145.1750  140.9647  156.8559 C.3     1  UNL1        0.0522
     16 N         144.2049  141.4763  159.2112 N.ar    1  UNL1       -0.2180
     17 C         143.3935  142.3514  160.1199 C.ar    1  UNL1        0.2195
     18 N         142.7408  143.5902  159.5820 N.ar    1  UNL1       -0.2180
     19 C         141.9477  141.4726  168.4158 C.ar    1  UNL1        0.1003
     20 C         142.8020  142.3738  169.2572 C.ar    1  UNL1        0.1460
     21 F         144.2966  142.3074  169.1478 F       1  UNL1       -0.2040
     22 C         142.1618  143.3415  170.2080 C.ar    1  UNL1        0.0299
     23 C         140.6674  143.4079  170.3174 C.ar    1  UNL1        0.0039
     24 C         139.8129  142.5067  169.4760 C.ar    1  UNL1        0.0212
     25 C         140.4531  141.5391  168.5253 C.ar    1  UNL1        0.1094
     26 N         139.5987  140.6379  167.6839 N.ar    1  UNL1       -0.1476
     27 N         138.8911  139.4019  168.1545 N.ar    1  UNL1       -0.1447
     28 C         138.1570  138.8146  166.9857 C.ar    1  UNL1        0.1446
     29 C         138.4109  139.6877  165.7927 C.ar    1  UNL1        0.1446
     30 N         139.3019  140.8145  166.2242 N.ar    1  UNL1       -0.1447
@<TRIPOS>BOND
     1    11    12    1
     2    12    13   ar
     3    13    14   ar
     4    14    15    1
     5    14    16   ar
     6    16    17   ar
     7    17     1    1
     8     1     2    1
     9     3     2    1
    10     3     4    1
    11     4     5    1
    12     5     6   am
    13     6     7    2
    14     6    19    1
    15    19    20   ar
    16    20    21    1
    17    20    22   ar
    18    22    23   ar
    19    23    24   ar
    20    24    25   ar
    21    25    26    1
    22    26    27   ar
    23    27    28   ar
    24    28    29   ar
    25    29    30   ar
    26     5     8    1
    27     9     8    1
    28     9    10    1
    29    17    18   ar
    30    18    12   ar
    31    10     1    1
    32     9     3    1
    33    25    19   ar
    34    30    26   ar
@<TRIPOS>MOLECULE
*****
 30 34 0 0 0
SMALL
GASTEIGER

@<TRIPOS>ATOM
      1 N         138.1390  140.7089  158.8808 N.pl3   1  UNL1       -0.2781
      2 C         138.9439  139.4452  158.9530 C.3     1  UNL1        0.0954
      3 C         139.3527  139.2371  160.3812 C.3     1  UNL1        0.0430
      4 C         140.1028  138.3274  161.3084 C.3     1  UNL1        0.0955
      5 N         140.0142  138.9002  162.6920 N.am    1  UNL1       -0.2759
      6 C         140.6234  138.3125  163.9302 C.2     1  UNL1        0.2527
      7 O         141.4064  137.0357  163.8476 O.2     1  UNL1       -0.2698
      8 C         139.2092  140.1639  162.6197 C.3     1  UNL1        0.0955
      9 C         138.8004  140.3721  161.1916 C.3     1  UNL1        0.0430
     10 C         138.0503  141.2817  160.2643 C.3     1  UNL1        0.0954
     11 C         134.8354  140.3524  154.8860 C.3     1  UNL1        0.0522
     12 C         135.8779  141.1184  155.6451 C.ar    1  UNL1        0.0634
     13 C         136.3112  142.4722  155.1660 C.ar    1  UNL1        0.0296
     14 C         137.3537  143.2382  155.9251 C.ar    1  UNL1        0.0634
     15 C         137.7870  144.5919  155.4460 C.3     1  UNL1        0.0522
     16 N         137.9630  142.6504  157.1634 N.ar    1  UNL1       -0.2180
     17 C         137.5297  141.2966  157.6426 C.ar    1  UNL1        0.2195
     18 N         136.4872  140.5306  156.8834 N.ar    1  UNL1       -0.2180
     19 C         140.4498  139.0016  165.2512 C.ar    1  UNL1        0.1003
     20 C         139.1679  138.8475  166.0147 C.ar    1  UNL1        0.1460
     21 F         138.0596  138.0044  165.4572 F       1  UNL1       -0.2040
     22 C         138.9942  139.5366  167.3358 C.ar    1  UNL1        0.0299
     23 C         140.1025  140.3797  167.8932 C.ar    1  UNL1        0.0039
     24 C         141.3845  140.5338  167.1298 C.ar    1  UNL1        0.0212
     25 C         141.5581  139.8448  165.8088 C.ar    1  UNL1        0.1094
     26 N         142.8400  139.9989  165.0453 N.ar    1  UNL1       -0.1476
     27 N         144.0267  139.0846  165.1211 N.ar    1  UNL1       -0.1447
     28 C         145.0804  139.6149  164.1946 C.ar    1  UNL1        0.1446
     29 C         144.5449  140.8570  163.5462 C.ar    1  UNL1        0.1446
     30 N         143.1603  141.0943  164.0719 N.ar    1  UNL1       -0.1447
@<TRIPOS>BOND
     1    11    12    1
     2    12    13   ar
     3    13    14   ar
     4    14    15    1
     5    14    16   ar
     6    16    17   ar
     7    17     1    1
     8     1     2    1
     9     3     2    1
    10     3     4    1
    11     4     5    1
    12     5     6   am
    13     6     7    2
    14     6    19    1
    15    19    20   ar
    16    20    21    1
    17    20    22   ar
    18    22    23   ar
    19    23    24   ar
    20    24    25   ar
    21    25    26    1
    22    26    27   ar
    23    27    28   ar
    24    28    29   ar
    25    29    30   ar
    26     5     8    1
    27     9     8    1
    28     9    10    1
    29    17    18   ar
    30    18    12   ar
    31    10     1    1
    32     9     3    1
    33    25    19   ar
    34    30    26   ar
@<TRIPOS>MOLECULE
*****
 30 34 0 0 0
SMALL
GASTEIGER

@<TRIPOS>ATOM
      1 N         140.7123  144.2533  158.3281 N.pl3   1  UNL1       -0.2781
      2 C         142.1853  143.9912  158.2211 C.3     1  UNL1        0.0954
      3 C         142.6575  143.4548  159.5399 C.3     1  UNL1        0.0430
      4 C         143.8598  142.9612  160.2888 C.3     1  UNL1        0.0955
      5 N         143.4218  142.5869  161.6738 N.am    1  UNL1       -0.2759
      6 C         144.3021  142.0454  162.7608 C.2     1  UNL1        0.2527
      7 O         145.7652  141.8347  162.5059 O.2     1  UNL1       -0.2698
      8 C         141.9487  142.8491  161.7807 C.3     1  UNL1        0.0955
      9 C         141.4764  143.3855  160.4619 C.3     1  UNL1        0.0430
     10 C         140.2741  143.8790  159.7129 C.3     1  UNL1        0.0954
     11 C         139.0795  148.2445  155.4290 C.3     1  UNL1        0.0522
     12 C         139.0154  146.7904  155.7914 C.ar    1  UNL1        0.0634
     13 C         138.0710  145.8777  155.0668 C.ar    1  UNL1        0.0296
     14 C         138.0070  144.4236  155.4292 C.ar    1  UNL1        0.0634
     15 C         137.0626  143.5108  154.7047 C.3     1  UNL1        0.0522
     16 N         138.8874  143.8822  156.5164 N.ar    1  UNL1       -0.2180
     17 C         139.8319  144.7948  157.2410 C.ar    1  UNL1        0.2195
     18 N         139.8959  146.2490  156.8785 N.ar    1  UNL1       -0.2180
     19 C         143.7194  141.7146  164.1028 C.ar    1  UNL1        0.1003
     20 C         143.8447  142.6897  165.2358 C.ar    1  UNL1        0.1460
     21 F         144.5527  143.9954  165.0267 F       1  UNL1       -0.2040
     22 C         143.2620  142.3589  166.5779 C.ar    1  UNL1        0.0299
     23 C         142.5541  141.0532  166.7870 C.ar    1  UNL1        0.0039
     24 C         142.4287  140.0781  165.6540 C.ar    1  UNL1        0.0212
     25 C         143.0114  140.4089  164.3120 C.ar    1  UNL1        0.1094
     26 N         142.8861  139.4338  163.1790 N.ar    1  UNL1       -0.1476
     27 N         141.6389  139.1470  162.3965 N.ar    1  UNL1       -0.1447
     28 C         141.9680  138.1104  161.3635 C.ar    1  UNL1        0.1446
     29 C         143.4185  137.7565  161.5076 C.ar    1  UNL1        0.1446
     30 N         143.9859  138.5744  162.6296 N.ar    1  UNL1       -0.1447
@<TRIPOS>BOND
     1    11    12    1
     2    12    13   ar
     3    13    14   ar
     4    14    15    1
     5    14    16   ar
     6    16    17   ar
     7    17     1    1
     8     1     2    1
     9     3     2    1
    10     3     4    1
    11     4     5    1
    12     5     6   am
    13     6     7    2
    14     6    19    1
    15    19    20   ar
    16    20    21    1
    17    20    22   ar
    18    22    23   ar
    19    23    24   ar
    20    24    25   ar
    21    25    26    1
    22    26    27   ar
    23    27    28   ar
    24    28    29   ar
    25    29    30   ar
    26     5     8    1
    27     9     8    1
    28     9    10    1
    29    17    18   ar
    30    18    12   ar
    31    10     1    1
    32     9     3    1
    33    25    19   ar
    34    30    26   ar
@<TRIPOS>MOLECULE
*****
 30 34 0 0 0
SMALL
GASTEIGER

@<TRIPOS>ATOM
      1 N         142.5111  138.2898  159.1701 N.pl3   1  UNL1       -0.2781
      2 C         142.7547  137.6903  160.5233 C.3     1  UNL1        0.0954
      3 C         142.1346  138.5928  161.5485 C.3     1  UNL1        0.0430
      4 C         141.9020  138.7801  163.0184 C.3     1  UNL1        0.0955
      5 N         141.1314  140.0531  163.2073 N.am    1  UNL1       -0.2759
      6 C         140.6831  140.6260  164.5190 C.2     1  UNL1        0.2527
      7 O         141.0017  139.9102  165.7982 O.2     1  UNL1       -0.2698
      8 C         140.8878  140.6526  161.8540 C.3     1  UNL1        0.0955
      9 C         141.5079  139.7501  160.8288 C.3     1  UNL1        0.0430
     10 C         141.7406  139.5629  159.3589 C.3     1  UNL1        0.0954
     11 C         144.6602  138.9240  154.4819 C.3     1  UNL1        0.0522
     12 C         144.0339  138.0339  155.5142 C.ar    1  UNL1        0.0634
     13 C         143.8560  136.5710  155.2346 C.ar    1  UNL1        0.0296
     14 C         143.2297  135.6810  156.2669 C.ar    1  UNL1        0.0634
     15 C         143.0517  134.2181  155.9875 C.3     1  UNL1        0.0522
     16 N         142.7815  136.2540  157.5787 N.ar    1  UNL1       -0.2180
     17 C         142.9594  137.7169  157.8583 C.ar    1  UNL1        0.2195
     18 N         143.5857  138.6069  156.8260 N.ar    1  UNL1       -0.2180
     19 C         139.9162  141.9147  164.5518 C.ar    1  UNL1        0.1003
     20 C         138.4189  141.8944  164.6388 C.ar    1  UNL1        0.1460
     21 F         137.6885  140.5853  164.6932 F       1  UNL1       -0.2040
     22 C         137.6519  143.1831  164.6716 C.ar    1  UNL1        0.0299
     23 C         138.3822  144.4921  164.6172 C.ar    1  UNL1        0.0039
     24 C         139.8796  144.5125  164.5301 C.ar    1  UNL1        0.0212
     25 C         140.6465  143.2238  164.4974 C.ar    1  UNL1        0.1094
     26 N         142.1438  143.2442  164.4103 N.ar    1  UNL1       -0.1476
     27 N         143.0963  142.9761  165.5376 N.ar    1  UNL1       -0.1447
     28 C         144.4927  143.1024  165.0046 C.ar    1  UNL1        0.1446
     29 C         144.4033  143.4485  163.5479 C.ar    1  UNL1        0.1446
     30 N         142.9516  143.5361  163.1806 N.ar    1  UNL1       -0.1447
@<TRIPOS>BOND
     1    11    12    1
     2    12    13   ar
     3    13    14   ar
     4    14    15    1
     5    14    16   ar
     6    16    17   ar
     7    17     1    1
     8     1     2    1
     9     3     2    1
    10     3     4    1
    11     4     5    1
    12     5     6   am
    13     6     7    2
    14     6    19    1
    15    19    20   ar
    16    20    21    1
    17    20    22   ar
    18    22    23   ar
    19    23    24   ar
    20    24    25   ar
    21    25    26    1
    22    26    27   ar
    23    27    28   ar
    24    28    29   ar
    25    29    30   ar
    26     5     8    1
    27     9     8    1
    28     9    10    1
    29    17    18   ar
    30    18    12   ar
    31    10     1    1
    32     9     3    1
    33    25    19   ar
    34    30    26   ar
@<TRIPOS>MOLECULE
*****
 30 34 0 0 0
SMALL
GASTEIGER

@<TRIPOS>ATOM
      1 N         138.4328  140.9536  158.7469 N.pl3   1  UNL1       -0.2781
      2 C         139.4991  139.8986  158.7346 C.3     1  UNL1        0.0954
      3 C         140.0643  139.7947  160.1201 C.3     1  UNL1        0.0430
      4 C         141.0726  139.0785  160.9688 C.3     1  UNL1        0.0955
      5 N         140.9790  139.6266  162.3620 N.am    1  UNL1       -0.2759
      6 C         141.8063  139.1954  163.5365 C.2     1  UNL1        0.2527
      7 O         142.8408  138.1217  163.3716 O.2     1  UNL1       -0.2698
      8 C         139.9127  140.6816  162.3743 C.3     1  UNL1        0.0955
      9 C         139.3475  140.7855  160.9887 C.3     1  UNL1        0.0430
     10 C         138.3391  141.5018  160.1401 C.3     1  UNL1        0.0954
     11 C         137.2914  144.4689  155.0946 C.3     1  UNL1        0.0522
     12 C         137.0348  143.1425  155.7462 C.ar    1  UNL1        0.0634
     13 C         135.9508  142.2472  155.2232 C.ar    1  UNL1        0.0296
     14 C         135.6942  140.9208  155.8748 C.ar    1  UNL1        0.0634
     15 C         134.6103  140.0255  155.3519 C.3     1  UNL1        0.0522
     16 N         136.5216  140.4896  157.0494 N.ar    1  UNL1       -0.2180
     17 C         137.6055  141.3849  157.5724 C.ar    1  UNL1        0.2195
     18 N         137.8622  142.7113  156.9208 N.ar    1  UNL1       -0.2180
     19 C         141.5991  139.8378  164.8760 C.ar    1  UNL1        0.1003
     20 C         140.5172  139.3393  165.7876 C.ar    1  UNL1        0.1460
     21 F         139.6425  138.1983  165.3596 F       1  UNL1       -0.2040
     22 C         140.3101  139.9817  167.1272 C.ar    1  UNL1        0.0299
     23 C         141.1848  141.1225  167.5552 C.ar    1  UNL1        0.0039
     24 C         142.2667  141.6211  166.6436 C.ar    1  UNL1        0.0212
     25 C         142.4738  140.9787  165.3041 C.ar    1  UNL1        0.1094
     26 N         143.5557  141.4773  164.3925 N.ar    1  UNL1       -0.1476
     27 N         143.4213  142.5812  163.3858 N.ar    1  UNL1       -0.1447
     28 C         144.7445  142.7456  162.6987 C.ar    1  UNL1        0.1446
     29 C         145.6967  141.7433  163.2807 C.ar    1  UNL1        0.1446
     30 N         144.9620  140.9594  164.3274 N.ar    1  UNL1       -0.1447
@<TRIPOS>BOND
     1    11    12    1
     2    12    13   ar
     3    13    14   ar
     4    14    15    1
     5    14    16   ar
     6    16    17   ar
     7    17     1    1
     8     1     2    1
     9     3     2    1
    10     3     4    1
    11     4     5    1
    12     5     6   am
    13     6     7    2
    14     6    19    1
    15    19    20   ar
    16    20    21    1
    17    20    22   ar
    18    22    23   ar
    19    23    24   ar
    20    24    25   ar
    21    25    26    1
    22    26    27   ar
    23    27    28   ar
    24    28    29   ar
    25    29    30   ar
    26     5     8    1
    27     9     8    1
    28     9    10    1
    29    17    18   ar
    30    18    12   ar
    31    10     1    1
    32     9     3    1
    33    25    19   ar
    34    30    26   ar
@<TRIPOS>MOLECULE
*****
 30 34 0 0 0
SMALL
GASTEIGER

@<TRIPOS>ATOM
      1 N         143.8129  141.0601  158.6661 N.pl3   1  UNL1       -0.2781
      2 C         143.7131  142.5403  158.8872 C.3     1  UNL1        0.0954
      3 C         143.2979  142.7694  160.3103 C.3     1  UNL1        0.0430
      4 C         142.9797  143.8259  161.3264 C.3     1  UNL1        0.0955
      5 N         142.6260  143.1402  162.6129 N.am    1  UNL1       -0.2759
      6 C         142.2404  143.8160  163.8952 C.2     1  UNL1        0.2527
      7 O         142.1835  145.3133  163.9663 O.2     1  UNL1       -0.2698
      8 C         142.7258  141.6599  162.3917 C.3     1  UNL1        0.0955
      9 C         143.1410  141.4308  160.9686 C.3     1  UNL1        0.0430
     10 C         143.4593  140.3743  159.9524 C.3     1  UNL1        0.0954
     11 C         143.5324  136.9697  155.4739 C.3     1  UNL1        0.0522
     12 C         144.0583  138.3391  155.7876 C.ar    1  UNL1        0.0634
     13 C         144.9698  139.0325  154.8189 C.ar    1  UNL1        0.0296
     14 C         145.4956  140.4018  155.1326 C.ar    1  UNL1        0.0634
     15 C         146.4071  141.0953  154.1640 C.3     1  UNL1        0.0522
     16 N         145.1100  141.0776  156.4150 N.ar    1  UNL1       -0.2180
     17 C         144.1985  140.3842  157.3837 C.ar    1  UNL1        0.2195
     18 N         143.6726  139.0149  157.0700 N.ar    1  UNL1       -0.2180
     19 C         141.9117  142.9947  165.1065 C.ar    1  UNL1        0.1003
     20 C         142.9951  142.6158  166.0723 C.ar    1  UNL1        0.1460
     21 F         144.4072  143.0582  165.8267 F       1  UNL1       -0.2040
     22 C         142.6664  141.7944  167.2837 C.ar    1  UNL1        0.0299
     23 C         141.2544  141.3520  167.5293 C.ar    1  UNL1        0.0039
     24 C         140.1709  141.7309  166.5635 C.ar    1  UNL1        0.0212
     25 C         140.4996  142.5522  165.3522 C.ar    1  UNL1        0.1094
     26 N         139.4163  142.9311  164.3864 N.ar    1  UNL1       -0.1476
     27 N         138.8720  142.0663  163.2883 N.ar    1  UNL1       -0.1447
     28 C         137.8063  142.8421  162.5724 C.ar    1  UNL1        0.1446
     29 C         137.6919  144.1863  163.2281 C.ar    1  UNL1        0.1446
     30 N         138.6870  144.2413  164.3492 N.ar    1  UNL1       -0.1447
@<TRIPOS>BOND
     1    11    12    1
     2    12    13   ar
     3    13    14   ar
     4    14    15    1
     5    14    16   ar
     6    16    17   ar
     7    17     1    1
     8     1     2    1
     9     3     2    1
    10     3     4    1
    11     4     5    1
    12     5     6   am
    13     6     7    2
    14     6    19    1
    15    19    20   ar
    16    20    21    1
    17    20    22   ar
    18    22    23   ar
    19    23    24   ar
    20    24    25   ar
    21    25    26    1
    22    26    27   ar
    23    27    28   ar
    24    28    29   ar
    25    29    30   ar
    26     5     8    1
    27     9     8    1
    28     9    10    1
    29    17    18   ar
    30    18    12   ar
    31    10     1    1
    32     9     3    1
    33    25    19   ar
    34    30    26   ar
@<TRIPOS>MOLECULE
*****
 30 34 0 0 0
SMALL
GASTEIGER

@<TRIPOS>ATOM
      1 N         142.8111  137.8530  158.5577 N.pl3   1  UNL1       -0.2781
      2 C         143.0049  137.2701  159.9261 C.3     1  UNL1        0.0954
      3 C         142.9180  138.3879  160.9226 C.3     1  UNL1        0.0430
      4 C         142.9841  138.7185  162.3842 C.3     1  UNL1        0.0955
      5 N         142.7774  140.1966  162.5350 N.am    1  UNL1       -0.2759
      6 C         142.7665  140.9580  163.8272 C.2     1  UNL1        0.2527
      7 O         142.9754  140.2357  165.1252 O.2     1  UNL1       -0.2698
      8 C         142.5836  140.7794  161.1664 C.3     1  UNL1        0.0955
      9 C         142.6705  139.6616  160.1700 C.3     1  UNL1        0.0430
     10 C         142.6044  139.3310  158.7083 C.3     1  UNL1        0.0954
     11 C         143.5729  133.4229  155.9511 C.3     1  UNL1        0.0522
     12 C         143.2029  134.8765  155.9620 C.ar    1  UNL1        0.0634
     13 C         142.8438  135.5687  154.6806 C.ar    1  UNL1        0.0296
     14 C         142.4738  137.0223  154.6916 C.ar    1  UNL1        0.0634
     15 C         142.1146  137.7145  153.4102 C.3     1  UNL1        0.0522
     16 N         142.4629  137.7837  155.9840 N.ar    1  UNL1       -0.2180
     17 C         142.8220  137.0915  157.2653 C.ar    1  UNL1        0.2195
     18 N         143.1920  135.6379  157.2544 N.ar    1  UNL1       -0.2180
     19 C         142.5467  142.4418  163.8216 C.ar    1  UNL1        0.1003
     20 C         143.7158  143.3727  163.6924 C.ar    1  UNL1        0.1460
     21 F         145.1047  142.8197  163.5689 F       1  UNL1       -0.2040
     22 C         143.4960  144.8565  163.6868 C.ar    1  UNL1        0.0299
     23 C         142.1072  145.4094  163.8104 C.ar    1  UNL1        0.0039
     24 C         140.9380  144.4786  163.9396 C.ar    1  UNL1        0.0212
     25 C         141.1578  142.9948  163.9452 C.ar    1  UNL1        0.1094
     26 N         139.9887  142.0639  164.0743 N.ar    1  UNL1       -0.1476
     27 N         139.4357  141.5156  165.3563 N.ar    1  UNL1       -0.1447
     28 C         138.2726  140.6308  165.0185 C.ar    1  UNL1        0.1446
     29 C         138.1068  140.6322  163.5277 C.ar    1  UNL1        0.1446
     30 N         139.1674  141.5179  162.9442 N.ar    1  UNL1       -0.1447
@<TRIPOS>BOND
     1    11    12    1
     2    12    13   ar
     3    13    14   ar
     4    14    15    1
     5    14    16   ar
     6    16    17   ar
     7    17     1    1
     8     1     2    1
     9     3     2    1
    10     3     4    1
    11     4     5    1
    12     5     6   am
    13     6     7    2
    14     6    19    1
    15    19    20   ar
    16    20    21    1
    17    20    22   ar
    18    22    23   ar
    19    23    24   ar
    20    24    25   ar
    21    25    26    1
    22    26    27   ar
    23    27    28   ar
    24    28    29   ar
    25    29    30   ar
    26     5     8    1
    27     9     8    1
    28     9    10    1
    29    17    18   ar
    30    18    12   ar
    31    10     1    1
    32     9     3    1
    33    25    19   ar
    34    30    26   ar
@<TRIPOS>MOLECULE
*****
 30 34 0 0 0
SMALL
GASTEIGER

@<TRIPOS>ATOM
      1 N         141.6573  138.4575  158.8329 N.pl3   1  UNL1       -0.2781
      2 C         143.0825  138.8884  159.0147 C.3     1  UNL1        0.0954
      3 C         143.2613  139.3078  160.4437 C.3     1  UNL1        0.0430
      4 C         144.2527  139.8333  161.4392 C.3     1  UNL1        0.0955
      5 N         143.5506  139.9864  162.7560 N.am    1  UNL1       -0.2759
      6 C         144.1658  140.4831  164.0306 C.2     1  UNL1        0.2527
      7 O         145.6120  140.8802  164.0605 O.2     1  UNL1       -0.2698
      8 C         142.1253  139.5555  162.5742 C.3     1  UNL1        0.0955
      9 C         141.9466  139.1361  161.1452 C.3     1  UNL1        0.0430
     10 C         140.9552  138.6106  160.1496 C.3     1  UNL1        0.0954
     11 C         141.4571  134.9569  154.9982 C.3     1  UNL1        0.0522
     12 C         140.9420  136.2105  155.6409 C.ar    1  UNL1        0.0634
     13 C         139.8116  136.9673  155.0089 C.ar    1  UNL1        0.0296
     14 C         139.2964  138.2209  155.6516 C.ar    1  UNL1        0.0634
     15 C         138.1661  138.9778  155.0197 C.3     1  UNL1        0.0522
     16 N         139.9117  138.7176  156.9263 N.ar    1  UNL1       -0.2180
     17 C         141.0421  137.9608  157.5583 C.ar    1  UNL1        0.2195
     18 N         141.5573  136.7072  156.9156 N.ar    1  UNL1       -0.2180
     19 C         143.3348  140.5828  165.2754 C.ar    1  UNL1        0.1003
     20 C         143.1728  139.3873  166.1667 C.ar    1  UNL1        0.1460
     21 F         143.8418  138.0921  165.8133 F       1  UNL1       -0.2040
     22 C         142.3418  139.4870  167.4116 C.ar    1  UNL1        0.0299
     23 C         141.6729  140.7821  167.7651 C.ar    1  UNL1        0.0039
     24 C         141.8348  141.9777  166.8737 C.ar    1  UNL1        0.0212
     25 C         142.6658  141.8780  165.6289 C.ar    1  UNL1        0.1094
     26 N         142.8278  143.0735  164.7375 N.ar    1  UNL1       -0.1476
     27 N         141.8224  143.5750  163.7437 N.ar    1  UNL1       -0.1447
     28 C         142.3968  144.7888  163.0755 C.ar    1  UNL1        0.1446
     29 C         143.7572  145.0376  163.6563 C.ar    1  UNL1        0.1446
     30 N         144.0235  143.9774  164.6835 N.ar    1  UNL1       -0.1447
@<TRIPOS>BOND
     1    11    12    1
     2    12    13   ar
     3    13    14   ar
     4    14    15    1
     5    14    16   ar
     6    16    17   ar
     7    17     1    1
     8     1     2    1
     9     3     2    1
    10     3     4    1
    11     4     5    1
    12     5     6   am
    13     6     7    2
    14     6    19    1
    15    19    20   ar
    16    20    21    1
    17    20    22   ar
    18    22    23   ar
    19    23    24   ar
    20    24    25   ar
    21    25    26    1
    22    26    27   ar
    23    27    28   ar
    24    28    29   ar
    25    29    30   ar
    26     5     8    1
    27     9     8    1
    28     9    10    1
    29    17    18   ar
    30    18    12   ar
    31    10     1    1
    32     9     3    1
    33    25    19   ar
    34    30    26   ar
