@<TRIPOS>MOLECULE
*****
 34 38 0 0 0
SMALL
GASTEIGER

@<TRIPOS>ATOM
      1 C         141.8930  141.0558  166.6035 C.ar    1  UNL1        0.0878
      2 C         142.9253  142.1429  166.5549 C.ar    1  UNL1        0.1543
      3 F         143.4692  142.7183  167.8289 F       1  UNL1       -0.2028
      4 C         143.4137  142.6546  165.2322 C.ar    1  UNL1        0.0356
      5 C         142.8698  142.0793  163.9582 C.ar    1  UNL1        0.0580
      6 C         143.3582  142.5911  162.6354 C.ar    1  UNL1        0.1996
      7 O         144.3905  143.6782  162.5867 O.2     1  UNL1       -0.2864
      8 C         142.8143  142.0157  161.3614 C.ar    1  UNL1        0.0701
      9 C         141.7819  140.9285  161.4102 C.ar    1  UNL1        0.0801
     10 N         141.2935  140.4167  162.7329 N.ar    1  UNL1       -0.3270
     11 C         141.8375  140.9921  164.0069 C.ar    1  UNL1        0.0750
     12 C         141.3491  140.4804  165.3296 C.ar    1  UNL1        0.0890
     13 CL        140.3167  139.3932  165.3783 Cl      1  UNL1       -0.0794
     14 C         139.9765  140.0507  169.8258 C.3     1  UNL1        0.0930
     15 C         141.3293  139.4622  170.0976 C.3     1  UNL1        0.0427
     16 C         142.2118  139.7671  168.9237 C.3     1  UNL1        0.0927
     17 N         141.4046  140.5440  167.9263 N.pl3   1  UNL1       -0.3033
     18 C         140.0231  140.7192  168.4838 C.3     1  UNL1        0.1104
     19 O         137.4303  138.7822  168.8730 O.2     1  UNL1       -0.2729
     20 C         137.5131  139.3483  170.2597 C.2     1  UNL1        0.2475
     21 N         138.7863  139.9825  170.7360 N.am    1  UNL1       -0.3026
     22 H         138.8407  140.3540  171.6461 H       1  UNL1        0.1495
     23 C         136.3229  139.2801  171.1700 C.3     1  UNL1        0.2153
     24 N         136.0516  138.0328  171.9578 N.ar    1  UNL1       -0.2013
     25 C         135.1403  137.9198  173.1438 C.ar    1  UNL1        0.2219
     26 N         135.1695  136.4966  173.6169 N.ar    1  UNL1       -0.1048
     27 N         136.0989  135.7301  172.7233 N.ar    1  UNL1       -0.0225
     28 N         136.6440  136.6795  171.6979 N.ar    1  UNL1       -0.0424
     29 C         143.3027  142.5274  160.0387 C.2     1  UNL1        0.0774
     30 O         142.9274  143.9064  159.5832 O.co2   1  UNL1       -0.5444
     31 O         144.1663  141.6601  159.1715 O.co2   1  UNL1       -0.5444
     32 C         140.2612  139.3296  162.7816 C.3     1  UNL1        0.0857
     33 C         139.9102  137.8713  162.7978 C.3     1  UNL1        0.0245
     34 C         138.8243  138.9048  162.8496 C.3     1  UNL1        0.0245
@<TRIPOS>UNITY_ATOM_ATTR
30 1
charge -1
@<TRIPOS>BOND
     1    19    20    2
     2    20    23    1
     3    23    24    1
     4    24    25   ar
     5    25    26   ar
     6    26    27   ar
     7    27    28   ar
     8    20    21   am
     9    21    14    1
    10    14    15    1
    11    15    16    1
    12    16    17    1
    13    17     1    1
    14     1     2   ar
    15     2     3    1
    16     2     4   ar
    17     4     5   ar
    18     5     6   ar
    19     6     7    2
    20     6     8   ar
    21     8    29    1
    22    29    30   ar
    23    29    31   ar
    24     8     9   ar
    25     9    10   ar
    26    10    32    1
    27    32    33    1
    28    33    34    1
    29    10    11   ar
    30    11    12   ar
    31    12    13    1
    32    17    18    1
    33    28    24   ar
    34    18    14    1
    35    12     1   ar
    36    11     5   ar
    37    34    32    1
    38    21    22    1
@<TRIPOS>MOLECULE
*****
 34 38 0 0 0
SMALL
GASTEIGER

@<TRIPOS>ATOM
      1 C         139.8158  139.5931  162.8840 C.ar    1  UNL1        0.0878
      2 C         138.6653  138.8246  163.4633 C.ar    1  UNL1        0.1543
      3 F         137.7502  138.0508  162.5612 F       1  UNL1       -0.2028
      4 C         138.4298  138.8300  164.9446 C.ar    1  UNL1        0.0356
      5 C         139.3449  139.6038  165.8468 C.ar    1  UNL1        0.0580
      6 C         139.1093  139.6091  167.3282 C.ar    1  UNL1        0.1996
      7 O         137.9588  138.8406  167.9074 O.2     1  UNL1       -0.2864
      8 C         140.0244  140.3829  168.2303 C.ar    1  UNL1        0.0701
      9 C         141.1751  141.1514  167.6510 C.ar    1  UNL1        0.0801
     10 N         141.4106  141.1461  166.1696 N.ar    1  UNL1       -0.3270
     11 C         140.4955  140.3723  165.2675 C.ar    1  UNL1        0.0750
     12 C         140.7309  140.3669  163.7862 C.ar    1  UNL1        0.0890
     13 CL        141.8816  141.1354  163.2068 Cl      1  UNL1       -0.0794
     14 C         140.6310  138.8627  159.1601 C.3     1  UNL1        0.0930
     15 C         140.1966  140.2965  159.0859 C.3     1  UNL1        0.0427
     16 C         139.8384  140.7446  160.4718 C.3     1  UNL1        0.0927
     17 N         140.0514  139.5878  161.4026 N.pl3   1  UNL1       -0.3033
     18 C         140.5412  138.4247  160.5919 C.3     1  UNL1        0.1104
     19 O         143.5575  138.4593  158.6376 O.2     1  UNL1       -0.2729
     20 C         142.5401  137.8139  157.7440 C.2     1  UNL1        0.2475
     21 N         141.0769  138.0156  158.0053 N.am    1  UNL1       -0.3026
     22 H         140.4091  137.5920  157.4188 H       1  UNL1        0.1495
     23 C         142.9860  136.9668  156.5891 C.3     1  UNL1        0.2153
     24 N         142.7406  135.4871  156.6056 N.ar    1  UNL1       -0.2013
     25 C         141.8130  134.7370  155.6964 C.ar    1  UNL1        0.2219
     26 N         141.8789  133.2841  156.0631 N.ar    1  UNL1       -0.1048
     27 N         142.8472  133.1361  157.1989 N.ar    1  UNL1       -0.0225
     28 N         143.3799  134.4977  157.5342 N.ar    1  UNL1       -0.0424
     29 C         139.7890  140.3882  169.7117 C.2     1  UNL1        0.0774
     30 O         140.4796  139.3827  170.5845 O.co2   1  UNL1       -0.5444
     31 O         138.8628  141.3992  170.3203 O.co2   1  UNL1       -0.5444
     32 C         142.5611  141.9145  165.5904 C.3     1  UNL1        0.0857
     33 C         143.1273  143.1930  165.0472 C.3     1  UNL1        0.0245
     34 C         143.9878  141.9672  165.1303 C.3     1  UNL1        0.0245
@<TRIPOS>UNITY_ATOM_ATTR
30 1
charge -1
@<TRIPOS>BOND
     1    19    20    2
     2    20    23    1
     3    23    24    1
     4    24    25   ar
     5    25    26   ar
     6    26    27   ar
     7    27    28   ar
     8    20    21   am
     9    21    14    1
    10    14    15    1
    11    15    16    1
    12    16    17    1
    13    17     1    1
    14     1     2   ar
    15     2     3    1
    16     2     4   ar
    17     4     5   ar
    18     5     6   ar
    19     6     7    2
    20     6     8   ar
    21     8    29    1
    22    29    30   ar
    23    29    31   ar
    24     8     9   ar
    25     9    10   ar
    26    10    32    1
    27    32    33    1
    28    33    34    1
    29    10    11   ar
    30    11    12   ar
    31    12    13    1
    32    17    18    1
    33    28    24   ar
    34    18    14    1
    35    12     1   ar
    36    11     5   ar
    37    34    32    1
    38    21    22    1
@<TRIPOS>MOLECULE
*****
 34 38 0 0 0
SMALL
GASTEIGER

@<TRIPOS>ATOM
      1 C         142.7809  141.6064  164.2766 C.ar    1  UNL1        0.0878
      2 C         143.8155  142.3552  165.0631 C.ar    1  UNL1        0.1543
      3 F         145.0296  142.9040  164.3740 F       1  UNL1       -0.2028
      4 C         143.6361  142.5553  166.5388 C.ar    1  UNL1        0.0356
      5 C         142.4220  142.0065  167.2280 C.ar    1  UNL1        0.0580
      6 C         142.2426  142.2066  168.7037 C.ar    1  UNL1        0.1996
      7 O         143.2772  142.9555  169.4903 O.2     1  UNL1       -0.2864
      8 C         141.0285  141.6579  169.3929 C.ar    1  UNL1        0.0701
      9 C         139.9939  140.9090  168.6062 C.ar    1  UNL1        0.0801
     10 N         140.1733  140.7089  167.1305 N.ar    1  UNL1       -0.3270
     11 C         141.3874  141.2577  166.4414 C.ar    1  UNL1        0.0750
     12 C         141.5668  141.0576  164.9657 C.ar    1  UNL1        0.0890
     13 CL        140.5322  140.3087  164.1790 Cl      1  UNL1       -0.0794
     14 C         143.1296  140.3610  160.6169 C.3     1  UNL1        0.0930
     15 C         143.3432  141.8356  160.4429 C.3     1  UNL1        0.0427
     16 C         143.2386  142.4815  161.7926 C.3     1  UNL1        0.0927
     17 N         142.9603  141.4063  162.8008 N.pl3   1  UNL1       -0.3033
     18 C         142.8930  140.0958  162.0741 C.3     1  UNL1        0.1104
     19 O         140.5560  139.4229  159.3936 O.2     1  UNL1       -0.2729
     20 C         141.8624  138.8634  158.9136 C.2     1  UNL1        0.2475
     21 N         143.1492  139.3325  159.5253 N.am    1  UNL1       -0.3026
     22 H         144.0066  138.9652  159.2103 H       1  UNL1        0.1495
     23 C         141.8820  137.8348  157.8220 C.3     1  UNL1        0.2153
     24 N         143.0717  137.7263  156.9149 N.ar    1  UNL1       -0.2013
     25 C         143.5147  136.4928  156.1854 C.ar    1  UNL1        0.2219
     26 N         144.7442  136.8366  155.3978 N.ar    1  UNL1       -0.1048
     27 N         145.0610  138.2824  155.6405 N.ar    1  UNL1       -0.0225
     28 N         144.0274  138.8324  156.5781 N.ar    1  UNL1       -0.0424
     29 C         140.8491  141.8579  170.8685 C.2     1  UNL1        0.0774
     30 O         141.7180  141.1124  171.8376 O.co2   1  UNL1       -0.5444
     31 O         139.8006  142.8036  171.3752 O.co2   1  UNL1       -0.5444
     32 C         139.1387  139.9600  166.3439 C.3     1  UNL1        0.0857
     33 C         138.4606  138.6708  165.9860 C.3     1  UNL1        0.0245
     34 C         138.0248  139.9521  165.3394 C.3     1  UNL1        0.0245
@<TRIPOS>UNITY_ATOM_ATTR
30 1
charge -1
@<TRIPOS>BOND
     1    19    20    2
     2    20    23    1
     3    23    24    1
     4    24    25   ar
     5    25    26   ar
     6    26    27   ar
     7    27    28   ar
     8    20    21   am
     9    21    14    1
    10    14    15    1
    11    15    16    1
    12    16    17    1
    13    17     1    1
    14     1     2   ar
    15     2     3    1
    16     2     4   ar
    17     4     5   ar
    18     5     6   ar
    19     6     7    2
    20     6     8   ar
    21     8    29    1
    22    29    30   ar
    23    29    31   ar
    24     8     9   ar
    25     9    10   ar
    26    10    32    1
    27    32    33    1
    28    33    34    1
    29    10    11   ar
    30    11    12   ar
    31    12    13    1
    32    17    18    1
    33    28    24   ar
    34    18    14    1
    35    12     1   ar
    36    11     5   ar
    37    34    32    1
    38    21    22    1
@<TRIPOS>MOLECULE
*****
 34 38 0 0 0
SMALL
GASTEIGER

@<TRIPOS>ATOM
      1 C         140.2827  139.3290  164.4200 C.ar    1  UNL1        0.0878
      2 C         139.2623  138.6124  165.2538 C.ar    1  UNL1        0.1543
      3 F         138.4641  137.4893  164.6609 F       1  UNL1       -0.2028
      4 C         139.0401  139.0189  166.6804 C.ar    1  UNL1        0.0356
      5 C         139.8383  140.1420  167.2733 C.ar    1  UNL1        0.0580
      6 C         139.6161  140.5485  168.7000 C.ar    1  UNL1        0.1996
      7 O         138.5956  139.8319  169.5338 O.2     1  UNL1       -0.2864
      8 C         140.4143  141.6716  169.2929 C.ar    1  UNL1        0.0701
      9 C         141.4348  142.3882  168.4591 C.ar    1  UNL1        0.0801
     10 N         141.6569  141.9817  167.0324 N.ar    1  UNL1       -0.3270
     11 C         140.8587  140.8586  166.4395 C.ar    1  UNL1        0.0750
     12 C         141.0809  140.4521  165.0129 C.ar    1  UNL1        0.0890
     13 CL        142.1014  141.1687  164.1791 Cl      1  UNL1       -0.0794
     14 C         140.2845  138.7443  160.5828 C.3     1  UNL1        0.0930
     15 C         141.4092  137.8497  161.0129 C.3     1  UNL1        0.0427
     16 C         141.5454  137.9599  162.5026 C.3     1  UNL1        0.0927
     17 N         140.5049  138.9225  162.9933 N.pl3   1  UNL1       -0.3033
     18 C         139.7257  139.4073  161.8068 C.3     1  UNL1        0.1104
     19 O         141.2112  141.1177  158.9990 O.2     1  UNL1       -0.2729
     20 C         140.2666  140.1280  158.3839 C.2     1  UNL1        0.2475
     21 N         139.8033  138.9413  159.1759 N.am    1  UNL1       -0.3026
     22 H         139.1833  138.2917  158.7722 H       1  UNL1        0.1495
     23 C         139.7853  140.3249  156.9770 C.3     1  UNL1        0.2153
     24 N         139.0803  139.2103  156.2625 N.ar    1  UNL1       -0.2013
     25 C         138.0781  139.3660  155.1574 C.ar    1  UNL1        0.2219
     26 N         137.6321  137.9962  154.7396 N.ar    1  UNL1       -0.1048
     27 N         138.3586  136.9938  155.5865 N.ar    1  UNL1       -0.0225
     28 N         139.2537  137.7441  156.5277 N.ar    1  UNL1       -0.0424
     29 C         140.1921  142.0781  170.7195 C.2     1  UNL1        0.0774
     30 O         139.3614  143.2867  171.0343 O.co2   1  UNL1       -0.5444
     31 O         140.8006  141.2760  171.8315 O.co2   1  UNL1       -0.5444
     32 C         142.6774  142.6983  166.1987 C.3     1  UNL1        0.0857
     33 C         144.1108  142.9857  165.8631 C.3     1  UNL1        0.0245
     34 C         143.0114  143.6519  165.0901 C.3     1  UNL1        0.0245
@<TRIPOS>UNITY_ATOM_ATTR
30 1
charge -1
@<TRIPOS>BOND
     1    19    20    2
     2    20    23    1
     3    23    24    1
     4    24    25   ar
     5    25    26   ar
     6    26    27   ar
     7    27    28   ar
     8    20    21   am
     9    21    14    1
    10    14    15    1
    11    15    16    1
    12    16    17    1
    13    17     1    1
    14     1     2   ar
    15     2     3    1
    16     2     4   ar
    17     4     5   ar
    18     5     6   ar
    19     6     7    2
    20     6     8   ar
    21     8    29    1
    22    29    30   ar
    23    29    31   ar
    24     8     9   ar
    25     9    10   ar
    26    10    32    1
    27    32    33    1
    28    33    34    1
    29    10    11   ar
    30    11    12   ar
    31    12    13    1
    32    17    18    1
    33    28    24   ar
    34    18    14    1
    35    12     1   ar
    36    11     5   ar
    37    34    32    1
    38    21    22    1
@<TRIPOS>MOLECULE
*****
 34 38 0 0 0
SMALL
GASTEIGER

@<TRIPOS>ATOM
      1 C         139.3101  139.6901  163.8714 C.ar    1  UNL1        0.0878
      2 C         138.8883  138.6703  164.8872 C.ar    1  UNL1        0.1543
      3 F         138.3293  137.3524  164.4395 F       1  UNL1       -0.2028
      4 C         139.0256  138.9685  166.3508 C.ar    1  UNL1        0.0356
      5 C         139.5846  140.2864  166.7986 C.ar    1  UNL1        0.0580
      6 C         139.7219  140.5845  168.2623 C.ar    1  UNL1        0.1996
      7 O         139.3002  139.5647  169.2782 O.2     1  UNL1       -0.2864
      8 C         140.2810  141.9025  168.7100 C.ar    1  UNL1        0.0701
      9 C         140.7027  142.9223  167.6941 C.ar    1  UNL1        0.0801
     10 N         140.5654  142.6242  166.2304 N.ar    1  UNL1       -0.3270
     11 C         140.0064  141.3062  165.7827 C.ar    1  UNL1        0.0750
     12 C         139.8691  141.0081  164.3191 C.ar    1  UNL1        0.0890
     13 CL        140.2909  142.0279  163.3031 Cl      1  UNL1       -0.0794
     14 C         138.4501  139.4784  160.0923 C.3     1  UNL1        0.0930
     15 C         139.4729  138.3883  160.2184 C.3     1  UNL1        0.0427
     16 C         139.9195  138.3350  161.6493 C.3     1  UNL1        0.0927
     17 N         139.1728  139.3920  162.4076 N.pl3   1  UNL1       -0.3033
     18 C         138.2647  140.0986  161.4453 C.3     1  UNL1        0.1104
     19 O         139.2436  141.9873  158.6516 O.2     1  UNL1       -0.2729
     20 C         138.1346  141.1324  158.1137 C.2     1  UNL1        0.2475
     21 N         137.7379  139.8779  158.8341 N.am    1  UNL1       -0.3026
     22 H         137.0101  139.3168  158.4810 H       1  UNL1        0.1495
     23 C         137.4224  141.5319  156.8555 C.3     1  UNL1        0.2153
     24 N         136.4420  140.5925  156.2181 N.ar    1  UNL1       -0.2013
     25 C         136.6311  139.8699  154.9173 C.ar    1  UNL1        0.2219
     26 N         135.4062  139.0417  154.6649 N.ar    1  UNL1       -0.1048
     27 N         134.4601  139.2524  155.8096 N.ar    1  UNL1       -0.0225
     28 N         135.1002  140.2109  156.7695 N.ar    1  UNL1       -0.0424
     29 C         140.4182  142.2006  170.1736 C.2     1  UNL1        0.0774
     30 O         141.7603  142.1023  170.8364 O.co2   1  UNL1       -0.5444
     31 O         139.2134  142.5971  170.9746 O.co2   1  UNL1       -0.5444
     32 C         140.9872  143.6440  165.2146 C.3     1  UNL1        0.0857
     33 C         140.6542  144.8005  164.3192 C.3     1  UNL1        0.0245
     34 C         142.0507  144.2539  164.3503 C.3     1  UNL1        0.0245
@<TRIPOS>UNITY_ATOM_ATTR
30 1
charge -1
@<TRIPOS>BOND
     1    19    20    2
     2    20    23    1
     3    23    24    1
     4    24    25   ar
     5    25    26   ar
     6    26    27   ar
     7    27    28   ar
     8    20    21   am
     9    21    14    1
    10    14    15    1
    11    15    16    1
    12    16    17    1
    13    17     1    1
    14     1     2   ar
    15     2     3    1
    16     2     4   ar
    17     4     5   ar
    18     5     6   ar
    19     6     7    2
    20     6     8   ar
    21     8    29    1
    22    29    30   ar
    23    29    31   ar
    24     8     9   ar
    25     9    10   ar
    26    10    32    1
    27    32    33    1
    28    33    34    1
    29    10    11   ar
    30    11    12   ar
    31    12    13    1
    32    17    18    1
    33    28    24   ar
    34    18    14    1
    35    12     1   ar
    36    11     5   ar
    37    34    32    1
    38    21    22    1
@<TRIPOS>MOLECULE
*****
 34 38 0 0 0
SMALL
GASTEIGER

@<TRIPOS>ATOM
      1 C         142.1220  142.3956  163.8201 C.ar    1  UNL1        0.0878
      2 C         143.2182  143.1741  164.4851 C.ar    1  UNL1        0.1543
      3 F         144.0419  144.1409  163.6870 F       1  UNL1       -0.2028
      4 C         143.4908  142.9857  165.9480 C.ar    1  UNL1        0.0356
      5 C         142.6672  142.0188  166.7460 C.ar    1  UNL1        0.0580
      6 C         142.9399  141.8305  168.2090 C.ar    1  UNL1        0.1996
      7 O         144.0361  142.6090  168.8739 O.2     1  UNL1       -0.2864
      8 C         142.1162  140.8636  169.0070 C.ar    1  UNL1        0.0701
      9 C         141.0199  140.0851  168.3420 C.ar    1  UNL1        0.0801
     10 N         140.7473  140.2735  166.8791 N.ar    1  UNL1       -0.3270
     11 C         141.5710  141.2403  166.0811 C.ar    1  UNL1        0.0750
     12 C         141.2984  141.4287  164.6182 C.ar    1  UNL1        0.0890
     13 CL        140.2021  140.6502  163.9532 Cl      1  UNL1       -0.0794
     14 C         141.0196  143.4824  160.2607 C.3     1  UNL1        0.0930
     15 C         141.8399  142.2652  159.9512 C.3     1  UNL1        0.0427
     16 C         142.3526  141.7100  161.2468 C.3     1  UNL1        0.0927
     17 N         141.8493  142.5839  162.3572 N.pl3   1  UNL1       -0.3033
     18 C         141.0254  143.6793  161.7477 C.3     1  UNL1        0.1104
     19 O         142.6118  145.1868  158.3740 O.2     1  UNL1       -0.2729
     20 C         141.1129  145.2024  158.3158 C.2     1  UNL1        0.2475
     21 N         140.3169  144.3501  159.2592 N.am    1  UNL1       -0.3026
     22 H         139.3332  144.3604  159.2210 H       1  UNL1        0.1495
     23 C         140.4102  146.0702  157.3142 C.3     1  UNL1        0.2153
     24 N         139.3302  145.4925  156.4482 N.ar    1  UNL1       -0.2013
     25 C         138.5259  146.2394  155.4259 C.ar    1  UNL1        0.2219
     26 N         137.5636  145.2750  154.7984 N.ar    1  UNL1       -0.1048
     27 N         137.7731  143.9321  155.4328 N.ar    1  UNL1       -0.0225
     28 N         138.8650  144.0665  156.4524 N.ar    1  UNL1       -0.0424
     29 C         142.3889  140.6753  170.4699 C.2     1  UNL1        0.0774
     30 O         141.5905  141.4372  171.4858 O.co2   1  UNL1       -0.5444
     31 O         143.4598  139.7249  170.9169 O.co2   1  UNL1       -0.5444
     32 C         139.6511  139.4950  166.2142 C.3     1  UNL1        0.0857
     33 C         139.1959  138.2915  165.4432 C.3     1  UNL1        0.0245
     34 C         138.2075  139.3500  165.8335 C.3     1  UNL1        0.0245
@<TRIPOS>UNITY_ATOM_ATTR
30 1
charge -1
@<TRIPOS>BOND
     1    19    20    2
     2    20    23    1
     3    23    24    1
     4    24    25   ar
     5    25    26   ar
     6    26    27   ar
     7    27    28   ar
     8    20    21   am
     9    21    14    1
    10    14    15    1
    11    15    16    1
    12    16    17    1
    13    17     1    1
    14     1     2   ar
    15     2     3    1
    16     2     4   ar
    17     4     5   ar
    18     5     6   ar
    19     6     7    2
    20     6     8   ar
    21     8    29    1
    22    29    30   ar
    23    29    31   ar
    24     8     9   ar
    25     9    10   ar
    26    10    32    1
    27    32    33    1
    28    33    34    1
    29    10    11   ar
    30    11    12   ar
    31    12    13    1
    32    17    18    1
    33    28    24   ar
    34    18    14    1
    35    12     1   ar
    36    11     5   ar
    37    34    32    1
    38    21    22    1
@<TRIPOS>MOLECULE
*****
 34 38 0 0 0
SMALL
GASTEIGER

@<TRIPOS>ATOM
      1 C         142.8675  140.9121  164.7089 C.ar    1  UNL1        0.0878
      2 C         143.7976  141.8150  165.4636 C.ar    1  UNL1        0.1543
      3 F         145.0802  142.2682  164.8315 F       1  UNL1       -0.2028
      4 C         143.4450  142.2647  166.8504 C.ar    1  UNL1        0.0356
      5 C         142.1624  141.8116  167.4826 C.ar    1  UNL1        0.0580
      6 C         141.8099  142.2614  168.8695 C.ar    1  UNL1        0.1996
      7 O         142.7400  143.1643  169.6242 O.2     1  UNL1       -0.2864
      8 C         140.5273  141.8082  169.5016 C.ar    1  UNL1        0.0701
      9 C         139.5972  140.9052  168.7468 C.ar    1  UNL1        0.0801
     10 N         139.9498  140.4555  167.3599 N.ar    1  UNL1       -0.3270
     11 C         141.2324  140.9087  166.7278 C.ar    1  UNL1        0.0750
     12 C         141.5849  140.4589  165.3410 C.ar    1  UNL1        0.0890
     13 CL        140.6548  139.5559  164.5862 Cl      1  UNL1       -0.0794
     14 C         143.5791  140.4470  160.9216 C.3     1  UNL1        0.0930
     15 C         143.9458  139.0933  161.4539 C.3     1  UNL1        0.0427
     16 C         143.7239  139.1028  162.9373 C.3     1  UNL1        0.0927
     17 N         143.2200  140.4623  163.3219 N.pl3   1  UNL1       -0.3033
     18 C         143.1305  141.2930  162.0762 C.3     1  UNL1        0.1104
     19 O         145.2499  142.8153  160.1473 O.2     1  UNL1       -0.2729
     20 C         144.4841  142.0629  159.0996 C.2     1  UNL1        0.2475
     21 N         143.6487  140.8788  159.4868 N.am    1  UNL1       -0.3026
     22 H         143.1461  140.3849  158.7992 H       1  UNL1        0.1495
     23 C         144.5537  142.4947  157.6648 C.3     1  UNL1        0.2153
     24 N         145.7843  142.2114  156.8552 N.ar    1  UNL1       -0.2013
     25 C         145.8588  141.3315  155.6427 C.ar    1  UNL1        0.2219
     26 N         147.2770  141.3347  155.1541 N.ar    1  UNL1       -0.1048
     27 N         148.0790  142.2165  156.0646 N.ar    1  UNL1       -0.0225
     28 N         147.1565  142.7584  157.1159 N.ar    1  UNL1       -0.0424
     29 C         140.1748  142.2580  170.8884 C.2     1  UNL1        0.0774
     30 O         140.7235  141.5253  172.0767 O.co2   1  UNL1       -0.5444
     31 O         139.2734  143.4405  171.0871 O.co2   1  UNL1       -0.5444
     32 C         139.0197  139.5526  166.6052 C.3     1  UNL1        0.0857
     33 C         138.4789  138.1805  166.3314 C.3     1  UNL1        0.0245
     34 C         137.9496  139.3607  165.5718 C.3     1  UNL1        0.0245
@<TRIPOS>UNITY_ATOM_ATTR
30 1
charge -1
@<TRIPOS>BOND
     1    19    20    2
     2    20    23    1
     3    23    24    1
     4    24    25   ar
     5    25    26   ar
     6    26    27   ar
     7    27    28   ar
     8    20    21   am
     9    21    14    1
    10    14    15    1
    11    15    16    1
    12    16    17    1
    13    17     1    1
    14     1     2   ar
    15     2     3    1
    16     2     4   ar
    17     4     5   ar
    18     5     6   ar
    19     6     7    2
    20     6     8   ar
    21     8    29    1
    22    29    30   ar
    23    29    31   ar
    24     8     9   ar
    25     9    10   ar
    26    10    32    1
    27    32    33    1
    28    33    34    1
    29    10    11   ar
    30    11    12   ar
    31    12    13    1
    32    17    18    1
    33    28    24   ar
    34    18    14    1
    35    12     1   ar
    36    11     5   ar
    37    34    32    1
    38    21    22    1
@<TRIPOS>MOLECULE
*****
 34 38 0 0 0
SMALL
GASTEIGER

@<TRIPOS>ATOM
      1 C         142.1887  142.1797  163.8145 C.ar    1  UNL1        0.0878
      2 C         143.2603  142.9954  164.4749 C.ar    1  UNL1        0.1543
      3 F         144.0906  143.9429  163.6608 F       1  UNL1       -0.2028
      4 C         143.5016  142.8637  165.9495 C.ar    1  UNL1        0.0356
      5 C         142.6713  141.9162  166.7636 C.ar    1  UNL1        0.0580
      6 C         142.9126  141.7845  168.2382 C.ar    1  UNL1        0.1996
      7 O         143.9842  142.6002  168.8987 O.2     1  UNL1       -0.2864
      8 C         142.0823  140.8370  169.0524 C.ar    1  UNL1        0.0701
      9 C         141.0106  140.0212  168.3919 C.ar    1  UNL1        0.0801
     10 N         140.7693  140.1530  166.9173 N.ar    1  UNL1       -0.3270
     11 C         141.5997  141.1005  166.1032 C.ar    1  UNL1        0.0750
     12 C         141.3584  141.2322  164.6286 C.ar    1  UNL1        0.0890
     13 CL        140.2867  140.4164  163.9681 Cl      1  UNL1       -0.0794
     14 C         142.0868  141.9807  159.9395 C.3     1  UNL1        0.0930
     15 C         141.0653  143.0475  160.2019 C.3     1  UNL1        0.0427
     16 C         140.9792  143.2518  161.6854 C.3     1  UNL1        0.0927
     17 N         141.9473  142.3114  162.3399 N.pl3   1  UNL1       -0.3033
     18 C         142.6319  141.5259  161.2608 C.3     1  UNL1        0.1104
     19 O         144.6697  142.8731  158.7015 O.2     1  UNL1       -0.2729
     20 C         143.7834  141.9065  157.9732 C.2     1  UNL1        0.2475
     21 N         142.4919  141.4603  158.5923 N.am    1  UNL1       -0.3026
     22 H         141.9102  140.8259  158.1143 H       1  UNL1        0.1495
     23 C         144.1885  141.3860  156.6260 C.3     1  UNL1        0.2153
     24 N         144.2352  139.9077  156.3760 N.ar    1  UNL1       -0.2013
     25 C         145.0769  139.2137  155.3466 C.ar    1  UNL1        0.2219
     26 N         144.8102  137.7410  155.4460 N.ar    1  UNL1       -0.1048
     27 N         143.8037  137.5248  156.5368 N.ar    1  UNL1       -0.0225
     28 N         143.4483  138.8639  157.1117 N.ar    1  UNL1       -0.0424
     29 C         142.3236  140.7052  170.5270 C.2     1  UNL1        0.0774
     30 O         143.3782  139.7665  171.0334 O.co2   1  UNL1       -0.5444
     31 O         141.5102  141.5122  171.4951 O.co2   1  UNL1       -0.5444
     32 C         139.6977  139.3372  166.2569 C.3     1  UNL1        0.0857
     33 C         139.2918  138.1685  165.4089 C.3     1  UNL1        0.0245
     34 C         138.2477  139.0930  165.9611 C.3     1  UNL1        0.0245
@<TRIPOS>UNITY_ATOM_ATTR
30 1
charge -1
@<TRIPOS>BOND
     1    19    20    2
     2    20    23    1
     3    23    24    1
     4    24    25   ar
     5    25    26   ar
     6    26    27   ar
     7    27    28   ar
     8    20    21   am
     9    21    14    1
    10    14    15    1
    11    15    16    1
    12    16    17    1
    13    17     1    1
    14     1     2   ar
    15     2     3    1
    16     2     4   ar
    17     4     5   ar
    18     5     6   ar
    19     6     7    2
    20     6     8   ar
    21     8    29    1
    22    29    30   ar
    23    29    31   ar
    24     8     9   ar
    25     9    10   ar
    26    10    32    1
    27    32    33    1
    28    33    34    1
    29    10    11   ar
    30    11    12   ar
    31    12    13    1
    32    17    18    1
    33    28    24   ar
    34    18    14    1
    35    12     1   ar
    36    11     5   ar
    37    34    32    1
    38    21    22    1
@<TRIPOS>MOLECULE
*****
 34 38 0 0 0
SMALL
GASTEIGER

@<TRIPOS>ATOM
      1 C         143.1505  140.3813  164.0953 C.ar    1  UNL1        0.0878
      2 C         143.9542  139.4469  164.9503 C.ar    1  UNL1        0.1543
      3 F         145.1166  138.7039  164.3615 F       1  UNL1       -0.2028
      4 C         143.5954  139.2556  166.3941 C.ar    1  UNL1        0.0356
      5 C         142.4329  139.9986  166.9829 C.ar    1  UNL1        0.0580
      6 C         142.0742  139.8072  168.4268 C.ar    1  UNL1        0.1996
      7 O         142.8779  138.8728  169.2818 O.2     1  UNL1       -0.2864
      8 C         140.9118  140.5502  169.0156 C.ar    1  UNL1        0.0701
      9 C         140.1081  141.4846  168.1605 C.ar    1  UNL1        0.0801
     10 N         140.4669  141.6759  166.7167 N.ar    1  UNL1       -0.3270
     11 C         141.6293  140.9329  166.1279 C.ar    1  UNL1        0.0750
     12 C         141.9881  141.1243  164.6841 C.ar    1  UNL1        0.0890
     13 CL        141.1844  142.0587  163.8290 Cl      1  UNL1       -0.0794
     14 C         143.7935  140.1844  160.2725 C.3     1  UNL1        0.0930
     15 C         144.3290  141.5499  160.5866 C.3     1  UNL1        0.0427
     16 C         144.1533  141.7899  162.0568 C.3     1  UNL1        0.0927
     17 N         143.5092  140.5727  162.6514 N.pl3   1  UNL1       -0.3033
     18 C         143.2869  139.5804  161.5487 C.3     1  UNL1        0.1104
     19 O         141.7808  141.0587  158.2269 O.2     1  UNL1       -0.2729
     20 C         142.7627  139.9737  157.8970 C.2     1  UNL1        0.2475
     21 N         143.7690  139.5365  158.9199 N.am    1  UNL1       -0.3026
     22 H         144.4135  138.8244  158.7034 H       1  UNL1        0.1495
     23 C         142.7382  139.3258  156.5444 C.3     1  UNL1        0.2153
     24 N         143.0029  137.8553  156.4122 N.ar    1  UNL1       -0.2013
     25 C         142.0892  136.7516  156.8560 C.ar    1  UNL1        0.2219
     26 N         142.7495  135.4445  156.5310 N.ar    1  UNL1       -0.1048
     27 N         144.0711  135.7404  155.8864 N.ar    1  UNL1       -0.0225
     28 N         144.2278  137.2303  155.8129 N.ar    1  UNL1       -0.0424
     29 C         140.5530  140.3588  170.4594 C.2     1  UNL1        0.0774
     30 O         141.4265  140.9381  171.5324 O.co2   1  UNL1       -0.5444
     31 O         139.3206  139.5882  170.8303 O.co2   1  UNL1       -0.5444
     32 C         139.6632  142.6103  165.8617 C.3     1  UNL1        0.0857
     33 C         139.3783  143.9971  165.3661 C.3     1  UNL1        0.0245
     34 C         138.5561  142.8419  164.8765 C.3     1  UNL1        0.0245
@<TRIPOS>UNITY_ATOM_ATTR
30 1
charge -1
@<TRIPOS>BOND
     1    19    20    2
     2    20    23    1
     3    23    24    1
     4    24    25   ar
     5    25    26   ar
     6    26    27   ar
     7    27    28   ar
     8    20    21   am
     9    21    14    1
    10    14    15    1
    11    15    16    1
    12    16    17    1
    13    17     1    1
    14     1     2   ar
    15     2     3    1
    16     2     4   ar
    17     4     5   ar
    18     5     6   ar
    19     6     7    2
    20     6     8   ar
    21     8    29    1
    22    29    30   ar
    23    29    31   ar
    24     8     9   ar
    25     9    10   ar
    26    10    32    1
    27    32    33    1
    28    33    34    1
    29    10    11   ar
    30    11    12   ar
    31    12    13    1
    32    17    18    1
    33    28    24   ar
    34    18    14    1
    35    12     1   ar
    36    11     5   ar
    37    34    32    1
    38    21    22    1
