@<TRIPOS>MOLECULE
*****
 33 36 0 0 0
SMALL
GASTEIGER

@<TRIPOS>ATOM
      1 N         141.0814  139.2041  163.3648 N.am    1  UNL1       -0.2555
      2 C         141.9355  140.1205  164.1899 C.3     1  UNL1        0.1197
      3 C         141.5795  140.3907  165.6218 C.3     1  UNL1        0.1160
      4 N         140.3695  139.7444  166.2286 N.am    1  UNL1       -0.2659
      5 C         140.0136  140.0146  167.6605 C.2     1  UNL1        0.2516
      6 O         138.8036  139.3683  168.2673 O.2     1  UNL1       -0.2698
      7 C         139.5155  138.8279  165.4035 C.3     1  UNL1        0.1799
      8 C         139.8715  138.5578  163.9717 C.2     1  UNL1        0.2497
      9 O         139.0174  137.6413  163.1466 O.2     1  UNL1       -0.2727
     10 C         140.8676  140.9310  168.4855 C.ar    1  UNL1        0.0811
     11 C         140.4094  142.3310  168.7684 C.ar    1  UNL1        0.0091
     12 C         141.2635  143.2475  169.5934 C.ar    1  UNL1        0.0299
     13 C         142.5758  142.7639  170.1356 C.ar    1  UNL1        0.1424
     14 F         143.4298  143.6803  170.9607 F       1  UNL1       -0.2041
     15 C         143.0340  141.3639  169.8528 C.ar    1  UNL1        0.0594
     16 C         142.1800  140.4475  169.0278 C.ar    1  UNL1        0.1467
     17 F         142.6382  139.0475  168.7449 F       1  UNL1       -0.2039
     18 C         142.1493  138.3934  159.0692 C.ar    1  UNL1        0.1386
     19 C         142.9539  137.7721  160.1721 C.ar    1  UNL1        0.0382
     20 C         142.5980  138.0423  161.6040 C.ar    1  UNL1        0.0180
     21 C         141.4374  138.9338  161.9329 C.ar    1  UNL1        0.0541
     22 C         140.6327  139.5552  160.8300 C.ar    1  UNL1        0.0180
     23 C         140.9887  139.2849  159.3981 C.ar    1  UNL1        0.0382
     24 O         142.5053  138.1232  157.6373 O.3     1  UNL1       -0.4754
     25 C         142.0295  136.8667  156.9705 C.3     1  UNL1        0.2068
     26 C         143.0203  135.8308  156.5284 C.3     1  UNL1        0.0646
     27 C         142.6152  134.3884  156.4555 C.3     1  UNL1        0.0759
     28 C         143.2918  131.9271  154.4224 C.3     1  UNL1        0.0173
     29 C         143.9446  132.1796  155.7491 C.3     1  UNL1        0.0576
     30 C         145.0230  131.3452  156.3742 C.3     1  UNL1        0.0174
     31 C         145.3785  131.9608  157.6951 C.3     1  UNL1        0.0187
     32 C         144.5198  133.1757  157.8863 C.3     1  UNL1        0.0721
     33 N         143.6336  133.3110  156.6836 N.3     1  UNL1       -0.2738
@<TRIPOS>BOND
     1    29    28    1
     2    29    30    1
     3    30    31    1
     4    31    32    1
     5    32    33    1
     6    33    27    1
     7    27    26    1
     8    26    25    1
     9    25    24    1
    10    24    18    1
    11    18    19   ar
    12    19    20   ar
    13    20    21   ar
    14    21     1    1
    15     1     2    1
    16     2     3    1
    17     3     4    1
    18     4     5   am
    19     5     6    2
    20     5    10    1
    21    10    11   ar
    22    11    12   ar
    23    12    13   ar
    24    13    14    1
    25    13    15   ar
    26    15    16   ar
    27    16    17    1
    28     4     7    1
    29     7     8    1
    30     8     9    2
    31    21    22   ar
    32    22    23   ar
    33    33    29    1
    34    23    18   ar
    35     8     1   am
    36    16    10   ar
@<TRIPOS>MOLECULE
*****
 33 36 0 0 0
SMALL
GASTEIGER

@<TRIPOS>ATOM
      1 N         139.8560  141.1059  163.3303 N.am    1  UNL1       -0.2555
      2 C         140.7809  141.9294  164.1766 C.3     1  UNL1        0.1197
      3 C         140.7991  141.7454  165.6652 C.3     1  UNL1        0.1160
      4 N         139.8922  140.7379  166.3075 N.am    1  UNL1       -0.2659
      5 C         139.9103  140.5538  167.7960 C.2     1  UNL1        0.2516
      6 O         139.0035  139.5463  168.4383 O.2     1  UNL1       -0.2698
      7 C         138.9672  139.9144  165.4611 C.3     1  UNL1        0.1799
      8 C         138.9491  140.0984  163.9726 C.2     1  UNL1        0.2497
      9 O         138.0241  139.2749  163.1262 O.2     1  UNL1       -0.2727
     10 C         140.8353  141.3773  168.6423 C.ar    1  UNL1        0.0811
     11 C         140.3886  142.7120  169.1611 C.ar    1  UNL1        0.0091
     12 C         141.3137  143.5355  170.0075 C.ar    1  UNL1        0.0299
     13 C         142.6853  143.0243  170.3349 C.ar    1  UNL1        0.1424
     14 F         143.6103  143.8478  171.1812 F       1  UNL1       -0.2041
     15 C         143.1320  141.6897  169.8160 C.ar    1  UNL1        0.0594
     16 C         142.2070  140.8662  168.9698 C.ar    1  UNL1        0.1467
     17 F         142.6537  139.5316  168.4509 F       1  UNL1       -0.2039
     18 C         139.8016  141.6579  158.8647 C.ar    1  UNL1        0.1386
     19 C         140.8219  140.7583  159.4968 C.ar    1  UNL1        0.0382
     20 C         140.8401  140.5744  160.9853 C.ar    1  UNL1        0.0180
     21 C         139.8378  141.2900  161.8417 C.ar    1  UNL1        0.0541
     22 C         138.8175  142.1895  161.2096 C.ar    1  UNL1        0.0180
     23 C         138.7993  142.3735  159.7211 C.ar    1  UNL1        0.0382
     24 O         139.7834  141.8419  157.3761 O.3     1  UNL1       -0.4754
     25 C         140.8290  142.6880  156.7121 C.3     1  UNL1        0.2068
     26 C         141.1138  144.0685  157.2254 C.3     1  UNL1        0.0646
     27 C         142.1267  144.2701  158.3131 C.3     1  UNL1        0.0759
     28 C         143.4370  143.1615  161.0886 C.3     1  UNL1        0.0173
     29 C         142.2797  144.1092  160.9768 C.3     1  UNL1        0.0576
     30 C         141.5215  144.7137  162.1212 C.3     1  UNL1        0.0174
     31 C         140.4506  145.5970  161.5527 C.3     1  UNL1        0.0187
     32 C         140.5470  145.5382  160.0570 C.3     1  UNL1        0.0721
     33 N         141.6775  144.6188  159.7011 N.3     1  UNL1       -0.2738
@<TRIPOS>BOND
     1    29    28    1
     2    29    30    1
     3    30    31    1
     4    31    32    1
     5    32    33    1
     6    33    27    1
     7    27    26    1
     8    26    25    1
     9    25    24    1
    10    24    18    1
    11    18    19   ar
    12    19    20   ar
    13    20    21   ar
    14    21     1    1
    15     1     2    1
    16     2     3    1
    17     3     4    1
    18     4     5   am
    19     5     6    2
    20     5    10    1
    21    10    11   ar
    22    11    12   ar
    23    12    13   ar
    24    13    14    1
    25    13    15   ar
    26    15    16   ar
    27    16    17    1
    28     4     7    1
    29     7     8    1
    30     8     9    2
    31    21    22   ar
    32    22    23   ar
    33    33    29    1
    34    23    18   ar
    35     8     1   am
    36    16    10   ar
@<TRIPOS>MOLECULE
*****
 33 36 0 0 0
SMALL
GASTEIGER

@<TRIPOS>ATOM
      1 N         142.1172  140.5539  163.1143 N.am    1  UNL1       -0.2555
      2 C         141.3168  141.4295  164.0323 C.3     1  UNL1        0.1197
      3 C         141.3887  141.2241  165.5165 C.3     1  UNL1        0.1160
      4 N         142.2610  140.1431  166.0826 N.am    1  UNL1       -0.2659
      5 C         142.3329  139.9377  167.5667 C.2     1  UNL1        0.2516
      6 O         143.2051  138.8567  168.1329 O.2     1  UNL1       -0.2698
      7 C         143.0614  139.2675  165.1646 C.3     1  UNL1        0.1799
      8 C         142.9895  139.4729  163.6805 C.2     1  UNL1        0.2497
      9 O         143.7899  138.5973  162.7624 O.2     1  UNL1       -0.2727
     10 C         141.5325  140.8133  168.4846 C.ar    1  UNL1        0.0811
     11 C         140.2075  140.3409  169.0055 C.ar    1  UNL1        0.0091
     12 C         139.4071  141.2166  169.9235 C.ar    1  UNL1        0.0299
     13 C         139.9317  142.5646  170.3206 C.ar    1  UNL1        0.1424
     14 F         139.1313  143.4402  171.2385 F       1  UNL1       -0.2041
     15 C         141.2567  143.0370  169.7997 C.ar    1  UNL1        0.0594
     16 C         142.0571  142.1614  168.8818 C.ar    1  UNL1        0.1467
     17 F         143.3821  142.6337  168.3609 F       1  UNL1       -0.2039
     18 C         141.9017  141.1702  158.6619 C.ar    1  UNL1        0.1386
     19 C         142.7509  142.0754  159.5041 C.ar    1  UNL1        0.0382
     20 C         142.8227  141.8700  160.9882 C.ar    1  UNL1        0.0180
     21 C         142.0453  140.7593  161.6301 C.ar    1  UNL1        0.0541
     22 C         141.1961  139.8541  160.7880 C.ar    1  UNL1        0.0180
     23 C         141.1243  140.0595  159.3039 C.ar    1  UNL1        0.0382
     24 O         141.8298  141.3756  157.1778 O.3     1  UNL1       -0.4754
     25 C         140.5381  141.7935  156.5401 C.3     1  UNL1        0.2068
     26 C         139.9148  143.1094  156.9010 C.3     1  UNL1        0.0646
     27 C         138.9994  143.2060  158.0853 C.3     1  UNL1        0.0759
     28 C         138.3631  142.0555  161.0721 C.3     1  UNL1        0.0173
     29 C         139.2096  143.2511  160.7496 C.3     1  UNL1        0.0576
     30 C         139.9122  144.1277  161.7435 C.3     1  UNL1        0.0174
     31 C         140.6390  145.1985  160.9849 C.3     1  UNL1        0.0187
     32 C         140.3855  144.9835  159.5222 C.3     1  UNL1        0.0721
     33 N         139.5021  143.7799  159.3768 N.3     1  UNL1       -0.2738
@<TRIPOS>BOND
     1    29    28    1
     2    29    30    1
     3    30    31    1
     4    31    32    1
     5    32    33    1
     6    33    27    1
     7    27    26    1
     8    26    25    1
     9    25    24    1
    10    24    18    1
    11    18    19   ar
    12    19    20   ar
    13    20    21   ar
    14    21     1    1
    15     1     2    1
    16     2     3    1
    17     3     4    1
    18     4     5   am
    19     5     6    2
    20     5    10    1
    21    10    11   ar
    22    11    12   ar
    23    12    13   ar
    24    13    14    1
    25    13    15   ar
    26    15    16   ar
    27    16    17    1
    28     4     7    1
    29     7     8    1
    30     8     9    2
    31    21    22   ar
    32    22    23   ar
    33    33    29    1
    34    23    18   ar
    35     8     1   am
    36    16    10   ar
@<TRIPOS>MOLECULE
*****
 33 36 0 0 0
SMALL
GASTEIGER

@<TRIPOS>ATOM
      1 N         140.7037  139.5987  163.5393 N.am    1  UNL1       -0.2555
      2 C         141.5977  140.5093  164.3277 C.3     1  UNL1        0.1197
      3 C         141.3554  140.7134  165.7939 C.3     1  UNL1        0.1160
      4 N         140.2191  140.0067  166.4717 N.am    1  UNL1       -0.2659
      5 C         139.9767  140.2107  167.9378 C.2     1  UNL1        0.2516
      6 O         138.8404  139.5041  168.6156 O.2     1  UNL1       -0.2698
      7 C         139.3251  139.0961  165.6833 C.3     1  UNL1        0.1799
      8 C         139.5674  138.8921  164.2171 C.2     1  UNL1        0.2497
      9 O         138.6734  137.9815  163.4287 O.2     1  UNL1       -0.2727
     10 C         140.8707  141.1213  168.7262 C.ar    1  UNL1        0.0811
     11 C         140.4112  142.5059  169.0750 C.ar    1  UNL1        0.0091
     12 C         141.3053  143.4165  169.8634 C.ar    1  UNL1        0.0299
     13 C         142.6588  142.9425  170.3029 C.ar    1  UNL1        0.1424
     14 F         143.5528  143.8531  171.0913 F       1  UNL1       -0.2041
     15 C         143.1183  141.5579  169.9541 C.ar    1  UNL1        0.0594
     16 C         142.2243  140.6473  169.1658 C.ar    1  UNL1        0.1467
     17 F         142.6838  139.2627  168.8170 F       1  UNL1       -0.2039
     18 C         141.4307  138.9866  159.1409 C.ar    1  UNL1        0.1386
     19 C         142.1080  138.1001  160.1435 C.ar    1  UNL1        0.0382
     20 C         141.8657  138.3041  161.6096 C.ar    1  UNL1        0.0180
     21 C         140.9461  139.3947  162.0731 C.ar    1  UNL1        0.0541
     22 C         140.2688  140.2813  161.0705 C.ar    1  UNL1        0.0180
     23 C         140.5111  140.0772  159.6044 C.ar    1  UNL1        0.0382
     24 O         141.6731  138.7826  157.6746 O.3     1  UNL1       -0.4754
     25 C         142.9661  139.2286  157.0590 C.3     1  UNL1        0.2068
     26 C         143.4187  140.6505  157.2122 C.3     1  UNL1        0.0646
     27 C         144.1864  141.0660  158.4320 C.3     1  UNL1        0.0759
     28 C         144.4553  140.7812  161.6717 C.3     1  UNL1        0.0173
     29 C         143.6706  141.8301  160.9409 C.3     1  UNL1        0.0576
     30 C         142.8718  142.9323  161.5710 C.3     1  UNL1        0.0174
     31 C         142.2545  143.7444  160.4712 C.3     1  UNL1        0.0187
     32 C         142.6718  143.1441  159.1615 C.3     1  UNL1        0.0721
     33 N         143.5470  141.9610  159.4518 N.3     1  UNL1       -0.2738
@<TRIPOS>BOND
     1    29    28    1
     2    29    30    1
     3    30    31    1
     4    31    32    1
     5    32    33    1
     6    33    27    1
     7    27    26    1
     8    26    25    1
     9    25    24    1
    10    24    18    1
    11    18    19   ar
    12    19    20   ar
    13    20    21   ar
    14    21     1    1
    15     1     2    1
    16     2     3    1
    17     3     4    1
    18     4     5   am
    19     5     6    2
    20     5    10    1
    21    10    11   ar
    22    11    12   ar
    23    12    13   ar
    24    13    14    1
    25    13    15   ar
    26    15    16   ar
    27    16    17    1
    28     4     7    1
    29     7     8    1
    30     8     9    2
    31    21    22   ar
    32    22    23   ar
    33    33    29    1
    34    23    18   ar
    35     8     1   am
    36    16    10   ar
@<TRIPOS>MOLECULE
*****
 33 36 0 0 0
SMALL
GASTEIGER

@<TRIPOS>ATOM
      1 N         141.3742  139.9241  158.4740 N.am    1  UNL1       -0.2555
      2 C         140.8820  138.5116  158.3635 C.3     1  UNL1        0.1197
      3 C         141.6506  137.5107  157.5527 C.3     1  UNL1        0.1160
      4 N         142.9116  137.9224  156.8523 N.am    1  UNL1       -0.2659
      5 C         143.6802  136.9216  156.0415 C.2     1  UNL1        0.2516
      6 O         144.9411  137.3334  155.3411 O.2     1  UNL1       -0.2698
      7 C         143.4038  139.3351  156.9628 C.3     1  UNL1        0.1799
      8 C         142.6352  140.3359  157.7736 C.2     1  UNL1        0.2497
      9 O         143.1274  141.7486  157.8841 O.2     1  UNL1       -0.2727
     10 C         143.1880  135.5090  155.9310 C.ar    1  UNL1        0.0811
     11 C         143.4670  134.5293  157.0320 C.ar    1  UNL1        0.0091
     12 C         142.9747  133.1166  156.9215 C.ar    1  UNL1        0.0299
     13 C         142.2034  132.6838  155.7100 C.ar    1  UNL1        0.1424
     14 F         141.7111  131.2712  155.5995 F       1  UNL1       -0.2041
     15 C         141.9243  133.6636  154.6090 C.ar    1  UNL1        0.0594
     16 C         142.4166  135.0762  154.7195 C.ar    1  UNL1        0.1467
     17 F         142.1375  136.0559  153.6185 F       1  UNL1       -0.2039
     18 C         139.0682  142.9267  160.9064 C.ar    1  UNL1        0.1386
     19 C         138.4754  142.3677  159.6470 C.ar    1  UNL1        0.0382
     20 C         139.2441  141.3669  158.8363 C.ar    1  UNL1        0.0180
     21 C         140.6056  140.9250  159.2848 C.ar    1  UNL1        0.0541
     22 C         141.1983  141.4840  160.5442 C.ar    1  UNL1        0.0180
     23 C         140.4297  142.4849  161.3550 C.ar    1  UNL1        0.0382
     24 O         138.2996  143.9276  161.7173 O.3     1  UNL1       -0.4754
     25 C         137.7696  143.5498  163.0687 C.3     1  UNL1        0.2068
     26 C         137.3497  142.1358  163.3412 C.3     1  UNL1        0.0646
     27 C         138.0337  141.3442  164.4161 C.3     1  UNL1        0.0759
     28 C         138.1000  138.9330  166.6141 C.3     1  UNL1        0.0173
     29 C         138.4751  138.8170  165.1665 C.3     1  UNL1        0.0576
     30 C         138.9466  137.5722  164.4750 C.3     1  UNL1        0.0174
     31 C         139.2076  137.9111  163.0372 C.3     1  UNL1        0.0187
     32 C         138.8974  139.3654  162.8402 C.3     1  UNL1        0.0721
     33 N         138.4447  139.9252  164.1561 N.3     1  UNL1       -0.2738
@<TRIPOS>BOND
     1    29    28    1
     2    29    30    1
     3    30    31    1
     4    31    32    1
     5    32    33    1
     6    33    27    1
     7    27    26    1
     8    26    25    1
     9    25    24    1
    10    24    18    1
    11    18    19   ar
    12    19    20   ar
    13    20    21   ar
    14    21     1    1
    15     1     2    1
    16     2     3    1
    17     3     4    1
    18     4     5   am
    19     5     6    2
    20     5    10    1
    21    10    11   ar
    22    11    12   ar
    23    12    13   ar
    24    13    14    1
    25    13    15   ar
    26    15    16   ar
    27    16    17    1
    28     4     7    1
    29     7     8    1
    30     8     9    2
    31    21    22   ar
    32    22    23   ar
    33    33    29    1
    34    23    18   ar
    35     8     1   am
    36    16    10   ar
@<TRIPOS>MOLECULE
*****
 33 36 0 0 0
SMALL
GASTEIGER

@<TRIPOS>ATOM
      1 N         143.0633  138.8118  161.4797 N.am    1  UNL1       -0.2555
      2 C         142.8597  137.5109  160.7613 C.3     1  UNL1        0.1197
      3 C         142.8114  137.4814  159.2623 C.3     1  UNL1        0.1160
      4 N         142.9667  138.7529  158.4818 N.am    1  UNL1       -0.2659
      5 C         142.9183  138.7235  156.9829 C.2     1  UNL1        0.2516
      6 O         143.0736  139.9950  156.2024 O.2     1  UNL1       -0.2698
      7 C         143.1702  140.0539  159.2003 C.3     1  UNL1        0.1799
      8 C         143.2185  140.0833  160.6992 C.2     1  UNL1        0.2497
      9 O         143.4221  141.3842  161.4176 O.2     1  UNL1       -0.2727
     10 C         142.7148  137.4226  156.2645 C.ar    1  UNL1        0.0811
     11 C         143.8999  136.6241  155.8085 C.ar    1  UNL1        0.0091
     12 C         143.6963  135.3232  155.0901 C.ar    1  UNL1        0.0299
     13 C         142.3076  134.8207  154.8276 C.ar    1  UNL1        0.1424
     14 F         142.1040  133.5198  154.1092 F       1  UNL1       -0.2041
     15 C         141.1224  135.6191  155.2836 C.ar    1  UNL1        0.0594
     16 C         141.3260  136.9201  156.0020 C.ar    1  UNL1        0.1467
     17 F         140.1408  137.7185  156.4579 F       1  UNL1       -0.2039
     18 C         143.2083  138.9002  165.9764 C.ar    1  UNL1        0.1386
     19 C         144.4289  139.2540  165.1796 C.ar    1  UNL1        0.0382
     20 C         144.3805  139.2245  163.6807 C.ar    1  UNL1        0.0180
     21 C         143.1116  138.8412  162.9786 C.ar    1  UNL1        0.0541
     22 C         141.8910  138.4874  163.7755 C.ar    1  UNL1        0.0180
     23 C         141.9394  138.5169  165.2744 C.ar    1  UNL1        0.0382
     24 O         143.2567  138.9296  167.4754 O.3     1  UNL1       -0.4754
     25 C         142.4816  139.9684  168.2305 C.3     1  UNL1        0.2068
     26 C         141.0804  139.6785  168.6810 C.3     1  UNL1        0.0646
     27 C         139.9597  140.5910  168.2797 C.3     1  UNL1        0.0759
     28 C         137.7928  138.5527  166.9384 C.3     1  UNL1        0.0173
     29 C         138.4917  139.6810  166.2396 C.3     1  UNL1        0.0576
     30 C         138.3173  140.0706  164.8016 C.3     1  UNL1        0.0174
     31 C         139.2055  141.2483  164.5294 C.3     1  UNL1        0.0187
     32 C         139.9289  141.5866  165.7992 C.3     1  UNL1        0.0721
     33 N         139.4877  140.6179  166.8561 N.3     1  UNL1       -0.2738
@<TRIPOS>BOND
     1    29    28    1
     2    29    30    1
     3    30    31    1
     4    31    32    1
     5    32    33    1
     6    33    27    1
     7    27    26    1
     8    26    25    1
     9    25    24    1
    10    24    18    1
    11    18    19   ar
    12    19    20   ar
    13    20    21   ar
    14    21     1    1
    15     1     2    1
    16     2     3    1
    17     3     4    1
    18     4     5   am
    19     5     6    2
    20     5    10    1
    21    10    11   ar
    22    11    12   ar
    23    12    13   ar
    24    13    14    1
    25    13    15   ar
    26    15    16   ar
    27    16    17    1
    28     4     7    1
    29     7     8    1
    30     8     9    2
    31    21    22   ar
    32    22    23   ar
    33    33    29    1
    34    23    18   ar
    35     8     1   am
    36    16    10   ar
@<TRIPOS>MOLECULE
*****
 33 36 0 0 0
SMALL
GASTEIGER

@<TRIPOS>ATOM
      1 N         140.9445  139.4628  158.7893 N.am    1  UNL1       -0.2555
      2 C         140.4378  138.2655  158.0411 C.3     1  UNL1        0.1197
      3 C         141.3299  137.5590  157.0638 C.3     1  UNL1        0.1160
      4 N         142.7287  138.0498  156.8348 N.am    1  UNL1       -0.2659
      5 C         143.6209  137.3434  155.8575 C.2     1  UNL1        0.2516
      6 O         145.0197  137.8342  155.6285 O.2     1  UNL1       -0.2698
      7 C         143.2354  139.2472  157.5830 C.3     1  UNL1        0.1799
      8 C         142.3433  139.9536  158.5602 C.2     1  UNL1        0.2497
      9 O         142.8499  141.1510  159.3084 O.2     1  UNL1       -0.2727
     10 C         143.1142  136.1461  155.1094 C.ar    1  UNL1        0.0811
     11 C         142.3439  136.3286  153.8353 C.ar    1  UNL1        0.0091
     12 C         141.8372  135.1313  153.0871 C.ar    1  UNL1        0.0299
     13 C         142.1009  133.7515  153.6130 C.ar    1  UNL1        0.1424
     14 F         141.5942  132.5542  152.8649 F       1  UNL1       -0.2041
     15 C         142.8712  133.5690  154.8871 C.ar    1  UNL1        0.0594
     16 C         143.3778  134.7663  155.6353 C.ar    1  UNL1        0.1467
     17 F         144.1482  134.5837  156.9094 F       1  UNL1       -0.2039
     18 C         138.2682  141.5822  161.7211 C.ar    1  UNL1        0.1386
     19 C         138.9832  140.3283  162.1291 C.ar    1  UNL1        0.0382
     20 C         139.8752  139.6219  161.1518 C.ar    1  UNL1        0.0180
     21 C         140.0523  140.1693  159.7665 C.ar    1  UNL1        0.0541
     22 C         139.3373  141.4232  159.3585 C.ar    1  UNL1        0.0180
     23 C         138.4452  142.1296  160.3358 C.ar    1  UNL1        0.0382
     24 O         137.3760  142.2887  162.6984 O.3     1  UNL1       -0.4754
     25 C         137.5963  143.7413  163.0004 C.3     1  UNL1        0.2068
     26 C         138.4732  144.1440  164.1489 C.3     1  UNL1        0.0646
     27 C         139.8601  144.6536  163.8908 C.3     1  UNL1        0.0759
     28 C         141.9502  142.5526  162.5247 C.3     1  UNL1        0.0173
     29 C         141.3465  143.7539  161.8596 C.3     1  UNL1        0.0576
     30 C         141.5976  144.2003  160.4498 C.3     1  UNL1        0.0174
     31 C         140.7920  145.4421  160.2064 C.3     1  UNL1        0.0187
     32 C         140.0431  145.7630  161.4658 C.3     1  UNL1        0.0721
     33 N         140.3858  144.7196  162.4876 N.3     1  UNL1       -0.2738
@<TRIPOS>BOND
     1    29    28    1
     2    29    30    1
     3    30    31    1
     4    31    32    1
     5    32    33    1
     6    33    27    1
     7    27    26    1
     8    26    25    1
     9    25    24    1
    10    24    18    1
    11    18    19   ar
    12    19    20   ar
    13    20    21   ar
    14    21     1    1
    15     1     2    1
    16     2     3    1
    17     3     4    1
    18     4     5   am
    19     5     6    2
    20     5    10    1
    21    10    11   ar
    22    11    12   ar
    23    12    13   ar
    24    13    14    1
    25    13    15   ar
    26    15    16   ar
    27    16    17    1
    28     4     7    1
    29     7     8    1
    30     8     9    2
    31    21    22   ar
    32    22    23   ar
    33    33    29    1
    34    23    18   ar
    35     8     1   am
    36    16    10   ar
@<TRIPOS>MOLECULE
*****
 33 36 0 0 0
SMALL
GASTEIGER

@<TRIPOS>ATOM
      1 N         141.3590  139.0820  163.5968 N.am    1  UNL1       -0.2555
      2 C         142.1937  140.0151  164.4230 C.3     1  UNL1        0.1197
      3 C         141.7779  140.3518  165.8244 C.3     1  UNL1        0.1160
      4 N         140.5275  139.7554  166.3996 N.am    1  UNL1       -0.2659
      5 C         140.1118  140.0921  167.8009 C.2     1  UNL1        0.2516
      6 O         138.8613  139.4957  168.3760 O.2     1  UNL1       -0.2698
      7 C         139.6928  138.8223  165.5733 C.3     1  UNL1        0.1799
      8 C         140.1086  138.4856  164.1720 C.2     1  UNL1        0.2497
      9 O         139.2739  137.5524  163.3457 O.2     1  UNL1       -0.2727
     10 C         140.9464  141.0252  168.6270 C.ar    1  UNL1        0.0811
     11 C         140.4641  142.4187  168.9022 C.ar    1  UNL1        0.0091
     12 C         141.2989  143.3518  169.7284 C.ar    1  UNL1        0.0299
     13 C         142.6158  142.8915  170.2795 C.ar    1  UNL1        0.1424
     14 F         143.4504  143.8246  171.1056 F       1  UNL1       -0.2041
     15 C         143.0981  141.4980  170.0043 C.ar    1  UNL1        0.0594
     16 C         142.2634  140.5649  169.1781 C.ar    1  UNL1        0.1467
     17 F         142.7457  139.1714  168.9030 F       1  UNL1       -0.2039
     18 C         142.6061  138.0718  159.3928 C.ar    1  UNL1        0.1386
     19 C         141.3627  138.8754  159.6336 C.ar    1  UNL1        0.0382
     20 C         140.9470  139.2121  161.0349 C.ar    1  UNL1        0.0180
     21 C         141.7748  138.7452  162.1954 C.ar    1  UNL1        0.0541
     22 C         143.0182  137.9415  161.9546 C.ar    1  UNL1        0.0180
     23 C         143.4338  137.6048  160.5533 C.ar    1  UNL1        0.0382
     24 O         143.0219  137.7350  157.9914 O.3     1  UNL1       -0.4754
     25 C         142.2083  138.2237  156.8298 C.3     1  UNL1        0.2068
     26 C         141.2189  137.3096  156.1697 C.3     1  UNL1        0.0646
     27 C         139.7722  137.3612  156.5623 C.3     1  UNL1        0.0759
     28 C         139.1686  140.5550  156.8538 C.3     1  UNL1        0.0173
     29 C         138.5222  139.6214  155.8738 C.3     1  UNL1        0.0576
     30 C         137.4849  139.9919  154.8556 C.3     1  UNL1        0.0174
     31 C         137.1212  138.7528  154.0923 C.3     1  UNL1        0.0187
     32 C         137.9338  137.6166  154.6388 C.3     1  UNL1        0.0721
     33 N         138.7996  138.1534  155.7398 N.3     1  UNL1       -0.2738
@<TRIPOS>BOND
     1    29    28    1
     2    29    30    1
     3    30    31    1
     4    31    32    1
     5    32    33    1
     6    33    27    1
     7    27    26    1
     8    26    25    1
     9    25    24    1
    10    24    18    1
    11    18    19   ar
    12    19    20   ar
    13    20    21   ar
    14    21     1    1
    15     1     2    1
    16     2     3    1
    17     3     4    1
    18     4     5   am
    19     5     6    2
    20     5    10    1
    21    10    11   ar
    22    11    12   ar
    23    12    13   ar
    24    13    14    1
    25    13    15   ar
    26    15    16   ar
    27    16    17    1
    28     4     7    1
    29     7     8    1
    30     8     9    2
    31    21    22   ar
    32    22    23   ar
    33    33    29    1
    34    23    18   ar
    35     8     1   am
    36    16    10   ar
@<TRIPOS>MOLECULE
*****
 33 36 0 0 0
SMALL
GASTEIGER

@<TRIPOS>ATOM
      1 N         142.6054  139.4143  161.1627 N.am    1  UNL1       -0.2555
      2 C         142.0011  138.1960  160.5297 C.3     1  UNL1        0.1197
      3 C         142.2832  137.8803  159.0906 C.3     1  UNL1        0.1160
      4 N         143.1697  138.7829  158.2846 N.am    1  UNL1       -0.2659
      5 C         143.4518  138.4672  156.8457 C.2     1  UNL1        0.2516
      6 O         144.3383  139.3698  156.0397 O.2     1  UNL1       -0.2698
      7 C         143.7740  140.0012  158.9177 C.3     1  UNL1        0.1799
      8 C         143.4918  140.3168  160.3567 C.2     1  UNL1        0.2497
      9 O         144.0961  141.5351  160.9898 O.2     1  UNL1       -0.2727
     10 C         142.8475  137.2490  156.2127 C.ar    1  UNL1        0.0811
     11 C         143.6736  136.0102  156.0309 C.ar    1  UNL1        0.0091
     12 C         143.0692  134.7920  155.3979 C.ar    1  UNL1        0.0299
     13 C         141.6389  134.8125  154.9466 C.ar    1  UNL1        0.1424
     14 F         141.0346  133.5943  154.3136 F       1  UNL1       -0.2041
     15 C         140.8129  136.0514  155.1284 C.ar    1  UNL1        0.0594
     16 C         141.4171  137.2696  155.7614 C.ar    1  UNL1        0.1467
     17 F         140.5911  138.5084  155.9431 F       1  UNL1       -0.2039
     18 C         141.7591  140.3613  165.4797 C.ar    1  UNL1        0.1386
     19 C         142.4916  139.1035  165.1175 C.ar    1  UNL1        0.0382
     20 C         142.7737  138.7878  163.6785 C.ar    1  UNL1        0.0180
     21 C         142.3233  139.7300  162.6017 C.ar    1  UNL1        0.0541
     22 C         141.5907  140.9878  162.9640 C.ar    1  UNL1        0.0180
     23 C         141.3086  141.3034  164.4029 C.ar    1  UNL1        0.0382
     24 O         141.4769  140.6770  166.9188 O.3     1  UNL1       -0.4754
     25 C         140.0627  140.7008  167.4181 C.3     1  UNL1        0.2068
     26 C         139.1368  139.5634  167.1030 C.3     1  UNL1        0.0646
     27 C         138.1348  139.6969  165.9948 C.3     1  UNL1        0.0759
     28 C         137.4789  141.1133  163.1290 C.3     1  UNL1        0.0173
     29 C         138.1327  139.7774  163.3231 C.3     1  UNL1        0.0576
     30 C         138.5999  138.8580  162.2339 C.3     1  UNL1        0.0174
     31 C         139.1902  137.6386  162.8779 C.3     1  UNL1        0.0187
     32 C         139.0878  137.8045  164.3652 C.3     1  UNL1        0.0721
     33 N         138.4343  139.1263  164.6403 N.3     1  UNL1       -0.2738
@<TRIPOS>BOND
     1    29    28    1
     2    29    30    1
     3    30    31    1
     4    31    32    1
     5    32    33    1
     6    33    27    1
     7    27    26    1
     8    26    25    1
     9    25    24    1
    10    24    18    1
    11    18    19   ar
    12    19    20   ar
    13    20    21   ar
    14    21     1    1
    15     1     2    1
    16     2     3    1
    17     3     4    1
    18     4     5   am
    19     5     6    2
    20     5    10    1
    21    10    11   ar
    22    11    12   ar
    23    12    13   ar
    24    13    14    1
    25    13    15   ar
    26    15    16   ar
    27    16    17    1
    28     4     7    1
    29     7     8    1
    30     8     9    2
    31    21    22   ar
    32    22    23   ar
    33    33    29    1
    34    23    18   ar
    35     8     1   am
    36    16    10   ar
