@<TRIPOS>MOLECULE
*****
 38 44 0 0 0
SMALL
GASTEIGER

@<TRIPOS>ATOM
      1 C         137.8174  140.5654  162.4016 C.3     1  UNL1        0.0700
      2 C         138.2648  139.1490  162.6103 C.3     1  UNL1        0.0193
      3 C         138.6202  138.6698  163.9865 C.3     1  UNL1        0.0286
      4 C         138.5282  139.6070  165.1541 C.3     1  UNL1        0.0933
      5 C         138.0808  141.0234  164.9454 C.3     1  UNL1        0.0286
      6 C         137.7254  141.5026  163.5691 C.3     1  UNL1        0.0193
      7 O         138.3230  139.9152  164.4186 O.3     1  UNL1       -0.3571
      8 C         138.0016  140.3486  163.1743 C.3     1  UNL1        0.1562
      9 N         137.4620  141.0446  161.0253 N.3     1  UNL1       -0.2926
     10 H         136.9494  140.2875  160.5731 H       1  UNL1        0.1236
     11 C         138.5438  141.4634  160.0743 C.3     1  UNL1        0.1152
     12 O         145.8337  141.6517  162.8258 O.2     1  UNL1       -0.2707
     13 C         144.5831  142.3682  162.4105 C.2     1  UNL1        0.2718
     14 C         144.5118  143.8640  162.4971 C.3     1  UNL1        0.2898
     15 O         143.2611  144.5805  162.0818 O.3     1  UNL1       -0.4628
     16 C         142.0818  143.8013  161.5800 C.ar    1  UNL1        0.1708
     17 C         140.8312  144.5178  161.1647 C.ar    1  UNL1        0.0411
     18 C         139.6518  143.7385  160.6628 C.ar    1  UNL1        0.0193
     19 C         139.7231  142.2427  160.5762 C.ar    1  UNL1        0.0765
     20 N         140.9738  141.5262  160.9915 N.ar    1  UNL1       -0.2304
     21 C         142.1531  142.3055  161.4934 C.ar    1  UNL1        0.1682
     22 N         143.4037  141.5889  161.9086 N.am    1  UNL1       -0.2639
     23 H         143.4505  140.6072  161.8518 H       1  UNL1        0.1565
     24 C         138.8836  139.1278  166.5303 C.3     1  UNL1        0.0336
     25 C         139.8110  139.9352  167.3894 C.3     1  UNL1        0.0511
     26 C         139.6731  140.1605  168.8659 C.3     1  UNL1        0.1136
     27 N         140.8161  141.0236  169.3119 N.ar    1  UNL1       -0.2940
     28 C         141.1971  141.5687  170.6563 C.ar    1  UNL1        0.2610
     29 O         140.3527  141.2607  171.8573 O.2     1  UNL1       -0.2670
     30 C         142.4224  142.4219  170.7998 C.ar    1  UNL1        0.0623
     31 C         143.2667  142.7299  169.5989 C.ar    1  UNL1        0.0254
     32 C         142.8857  142.1847  168.2545 C.ar    1  UNL1        0.0971
     33 N         143.5324  142.3273  166.9010 N.ar    1  UNL1       -0.2400
     34 C         143.0285  141.7150  165.6277 C.ar    1  UNL1        0.1281
     35 C         141.7820  140.8808  165.6386 C.ar    1  UNL1        0.1566
     36 F         141.2781  140.2685  164.3654 F       1  UNL1       -0.2028
     37 C         141.0392  140.6589  166.9228 C.ar    1  UNL1        0.0258
     38 C         141.6604  141.3316  168.1110 C.ar    1  UNL1        0.0783
@<TRIPOS>BOND
     1    12    13    2
     2    13    14    1
     3    14    15    1
     4    15    16    1
     5    16    17   ar
     6    17    18   ar
     7    18    19   ar
     8    19    11    1
     9    11     9    1
    10     9     1    1
    11     1     2    1
    12     2     3    1
    13     3     4    1
    14     4    24    1
    15    24    25    1
    16    25    26    1
    17    26    27    1
    18    27    28   ar
    19    28    29    2
    20    28    30   ar
    21    30    31   ar
    22    31    32   ar
    23    32    33   ar
    24    33    34   ar
    25    34    35   ar
    26    35    36    1
    27    35    37   ar
    28    37    38   ar
    29     4     5    1
    30     5     6    1
    31     4     7    1
    32     7     8    1
    33    19    20   ar
    34    20    21   ar
    35    21    22    1
    36    22    13   am
    37    21    16   ar
    38     6     1    1
    39     8     1    1
    40    37    25    1
    41    38    27   ar
    42    38    32   ar
    43     9    10    1
    44    22    23    1
@<TRIPOS>MOLECULE
*****
 38 44 0 0 0
SMALL
GASTEIGER

@<TRIPOS>ATOM
      1 C         139.3945  137.7898  162.4237 C.3     1  UNL1        0.0700
      2 C         139.1904  137.6379  163.9019 C.3     1  UNL1        0.0193
      3 C         140.3320  137.8767  164.8451 C.3     1  UNL1        0.0286
      4 C         141.6778  138.2674  164.3100 C.3     1  UNL1        0.0933
      5 C         141.8819  138.4193  162.8318 C.3     1  UNL1        0.0286
      6 C         140.7402  138.1805  161.8886 C.3     1  UNL1        0.0193
      7 O         141.0823  138.1471  163.7542 O.3     1  UNL1       -0.3571
      8 C         140.0501  137.9312  162.9013 C.3     1  UNL1        0.1562
      9 N         138.2527  137.5510  161.4805 N.3     1  UNL1       -0.2926
     10 H         138.6619  137.3023  160.5799 H       1  UNL1        0.1236
     11 C         137.2567  138.6413  161.2173 C.3     1  UNL1        0.1152
     12 O         138.1113  145.1094  165.4814 O.2     1  UNL1       -0.2707
     13 C         138.2410  144.3907  164.1712 C.2     1  UNL1        0.2718
     14 C         138.7851  145.1093  162.9722 C.3     1  UNL1        0.2898
     15 O         138.9147  144.3905  161.6620 O.3     1  UNL1       -0.4628
     16 C         138.5002  142.9532  161.5509 C.ar    1  UNL1        0.1708
     17 C         138.6299  142.2345  160.2407 C.ar    1  UNL1        0.0411
     18 C         138.2154  140.7971  160.1295 C.ar    1  UNL1        0.0193
     19 C         137.6712  140.0786  161.3285 C.ar    1  UNL1        0.0765
     20 N         137.5416  140.7974  162.6387 N.ar    1  UNL1       -0.2304
     21 C         137.9561  142.2346  162.7499 C.ar    1  UNL1        0.1682
     22 N         137.8265  142.9534  164.0600 N.am    1  UNL1       -0.2639
     23 H         137.4693  142.4817  164.8470 H       1  UNL1        0.1565
     24 C         142.8194  138.5061  165.2532 C.3     1  UNL1        0.0336
     25 C         142.5975  139.2804  166.5186 C.3     1  UNL1        0.0511
     26 C         143.1103  138.9119  167.8792 C.3     1  UNL1        0.1136
     27 N         142.6535  139.9629  168.8471 N.ar    1  UNL1       -0.2940
     28 C         142.8589  140.1244  170.3241 C.ar    1  UNL1        0.2610
     29 O         143.6540  139.1063  171.0866 O.2     1  UNL1       -0.2670
     30 C         142.2692  141.3040  171.0388 C.ar    1  UNL1        0.0623
     31 C         141.4741  142.3221  170.2763 C.ar    1  UNL1        0.0254
     32 C         141.2687  142.1606  168.7993 C.ar    1  UNL1        0.0971
     33 N         140.5301  143.0089  167.7967 N.ar    1  UNL1       -0.2400
     34 C         140.4094  142.7157  166.3306 C.ar    1  UNL1        0.1281
     35 C         141.0563  141.4908  165.7551 C.ar    1  UNL1        0.1566
     36 F         140.9357  141.1976  164.2890 F       1  UNL1       -0.2028
     37 C         141.8239  140.5592  166.6456 C.ar    1  UNL1        0.0258
     38 C         141.8585  140.9810  168.0847 C.ar    1  UNL1        0.0783
@<TRIPOS>BOND
     1    12    13    2
     2    13    14    1
     3    14    15    1
     4    15    16    1
     5    16    17   ar
     6    17    18   ar
     7    18    19   ar
     8    19    11    1
     9    11     9    1
    10     9     1    1
    11     1     2    1
    12     2     3    1
    13     3     4    1
    14     4    24    1
    15    24    25    1
    16    25    26    1
    17    26    27    1
    18    27    28   ar
    19    28    29    2
    20    28    30   ar
    21    30    31   ar
    22    31    32   ar
    23    32    33   ar
    24    33    34   ar
    25    34    35   ar
    26    35    36    1
    27    35    37   ar
    28    37    38   ar
    29     4     5    1
    30     5     6    1
    31     4     7    1
    32     7     8    1
    33    19    20   ar
    34    20    21   ar
    35    21    22    1
    36    22    13   am
    37    21    16   ar
    38     6     1    1
    39     8     1    1
    40    37    25    1
    41    38    27   ar
    42    38    32   ar
    43     9    10    1
    44    22    23    1
@<TRIPOS>MOLECULE
*****
 38 44 0 0 0
SMALL
GASTEIGER

@<TRIPOS>ATOM
      1 C         138.9073  138.3974  162.0621 C.3     1  UNL1        0.0700
      2 C         139.3948  137.5464  163.1971 C.3     1  UNL1        0.0193
      3 C         139.2253  138.0144  164.6120 C.3     1  UNL1        0.0286
      4 C         138.5683  139.3335  164.8921 C.3     1  UNL1        0.0933
      5 C         138.0808  140.1846  163.7572 C.3     1  UNL1        0.0286
      6 C         138.2503  139.7165  162.3421 C.3     1  UNL1        0.0193
      7 O         138.6390  139.1191  164.1002 O.3     1  UNL1       -0.3571
      8 C         138.7922  138.6960  162.8208 C.3     1  UNL1        0.1562
      9 N         139.0768  137.9293  160.6471 N.3     1  UNL1       -0.2926
     10 H         139.1755  136.9147  160.6824 H       1  UNL1        0.1236
     11 C         140.2143  138.4464  159.8173 C.3     1  UNL1        0.1152
     12 O         144.3880  144.4940  162.4167 O.2     1  UNL1       -0.2707
     13 C         144.2279  143.0160  162.2173 C.2     1  UNL1        0.2718
     14 C         145.2990  142.0757  162.6851 C.3     1  UNL1        0.2898
     15 O         145.1388  140.5976  162.4857 O.3     1  UNL1       -0.4628
     16 C         143.9077  140.0598  161.8186 C.ar    1  UNL1        0.1708
     17 C         143.7477  138.5818  161.6193 C.ar    1  UNL1        0.0411
     18 C         142.5165  138.0440  160.9521 C.ar    1  UNL1        0.0193
     19 C         141.4454  138.9842  160.4844 C.ar    1  UNL1        0.0765
     20 N         141.6055  140.4623  160.6837 N.ar    1  UNL1       -0.2304
     21 C         142.8367  141.0001  161.3508 C.ar    1  UNL1        0.1682
     22 N         142.9967  142.4781  161.5502 N.am    1  UNL1       -0.2639
     23 H         142.2937  143.0952  161.2432 H       1  UNL1        0.1565
     24 C         138.3988  139.8015  166.3071 C.3     1  UNL1        0.0336
     25 C         139.5622  140.3944  167.0454 C.3     1  UNL1        0.0511
     26 C         140.7785  141.0134  166.4230 C.3     1  UNL1        0.1136
     27 N         141.6815  141.4740  167.5287 N.ar    1  UNL1       -0.2940
     28 C         143.0181  142.1546  167.5152 C.ar    1  UNL1        0.2610
     29 O         143.6764  142.4889  166.2095 O.2     1  UNL1       -0.2670
     30 C         143.6964  142.5009  168.8074 C.ar    1  UNL1        0.0623
     31 C         143.0382  142.1667  170.1131 C.ar    1  UNL1        0.0254
     32 C         141.7016  141.4860  170.1266 C.ar    1  UNL1        0.0971
     33 N         140.8218  141.0389  171.2653 N.ar    1  UNL1       -0.2400
     34 C         139.4913  140.3613  171.1219 C.ar    1  UNL1        0.1281
     35 C         138.9371  140.0781  169.7571 C.ar    1  UNL1        0.1566
     36 F         137.6066  139.4005  169.6137 F       1  UNL1       -0.2028
     37 C         139.7134  140.4725  168.5357 C.ar    1  UNL1        0.0258
     38 C         141.0232  141.1397  168.8344 C.ar    1  UNL1        0.0783
@<TRIPOS>BOND
     1    12    13    2
     2    13    14    1
     3    14    15    1
     4    15    16    1
     5    16    17   ar
     6    17    18   ar
     7    18    19   ar
     8    19    11    1
     9    11     9    1
    10     9     1    1
    11     1     2    1
    12     2     3    1
    13     3     4    1
    14     4    24    1
    15    24    25    1
    16    25    26    1
    17    26    27    1
    18    27    28   ar
    19    28    29    2
    20    28    30   ar
    21    30    31   ar
    22    31    32   ar
    23    32    33   ar
    24    33    34   ar
    25    34    35   ar
    26    35    36    1
    27    35    37   ar
    28    37    38   ar
    29     4     5    1
    30     5     6    1
    31     4     7    1
    32     7     8    1
    33    19    20   ar
    34    20    21   ar
    35    21    22    1
    36    22    13   am
    37    21    16   ar
    38     6     1    1
    39     8     1    1
    40    37    25    1
    41    38    27   ar
    42    38    32   ar
    43     9    10    1
    44    22    23    1
@<TRIPOS>MOLECULE
*****
 38 44 0 0 0
SMALL
GASTEIGER

@<TRIPOS>ATOM
      1 C         139.2146  138.3585  161.5136 C.3     1  UNL1        0.0700
      2 C         139.6634  137.6468  162.7555 C.3     1  UNL1        0.0193
      3 C         139.2775  138.1768  164.1046 C.3     1  UNL1        0.0286
      4 C         138.4427  139.4185  164.2119 C.3     1  UNL1        0.0933
      5 C         137.9939  140.1301  162.9700 C.3     1  UNL1        0.0286
      6 C         138.3799  139.6001  161.6209 C.3     1  UNL1        0.0193
      7 O         138.6293  139.1660  163.4506 O.3     1  UNL1       -0.3571
      8 C         138.9782  138.6868  162.2308 C.3     1  UNL1        0.1562
      9 N         139.6006  137.8284  160.1645 N.3     1  UNL1       -0.2926
     10 H         139.7560  136.8264  160.2752 H       1  UNL1        0.1236
     11 C         140.8050  138.3780  159.4592 C.3     1  UNL1        0.1152
     12 O         144.2967  144.6505  162.4947 O.2     1  UNL1       -0.2707
     13 C         144.2528  143.1674  162.2741 C.2     1  UNL1        0.2718
     14 C         145.3290  142.2922  162.8449 C.3     1  UNL1        0.2898
     15 O         145.2851  140.8091  162.6243 O.3     1  UNL1       -0.4628
     16 C         144.1651  140.2013  161.8331 C.ar    1  UNL1        0.1708
     17 C         144.1212  138.7183  161.6125 C.ar    1  UNL1        0.0411
     18 C         143.0012  138.1105  160.8212 C.ar    1  UNL1        0.0193
     19 C         141.9250  138.9857  160.2505 C.ar    1  UNL1        0.0765
     20 N         141.9689  140.4688  160.4711 N.ar    1  UNL1       -0.2304
     21 C         143.0889  141.0766  161.2623 C.ar    1  UNL1        0.1682
     22 N         143.1328  142.5596  161.4828 N.am    1  UNL1       -0.2639
     23 H         142.4264  143.1341  161.1083 H       1  UNL1        0.1565
     24 C         138.0567  139.9485  165.5610 C.3     1  UNL1        0.0336
     25 C         139.1085  140.1786  166.6054 C.3     1  UNL1        0.0511
     26 C         139.0127  139.7958  168.0525 C.3     1  UNL1        0.1136
     27 N         140.2858  140.2125  168.7276 N.ar    1  UNL1       -0.2940
     28 C         140.7553  140.0915  170.1470 C.ar    1  UNL1        0.2610
     29 O         139.8727  139.4511  171.1770 O.2     1  UNL1       -0.2670
     30 C         142.1075  140.6110  170.5365 C.ar    1  UNL1        0.0623
     31 C         142.9901  141.2513  169.5065 C.ar    1  UNL1        0.0254
     32 C         142.5206  141.3723  168.0871 C.ar    1  UNL1        0.0971
     33 N         143.1803  141.9570  166.8650 N.ar    1  UNL1       -0.2400
     34 C         142.5784  142.0073  165.4920 C.ar    1  UNL1        0.1281
     35 C         141.2087  141.4447  165.2525 C.ar    1  UNL1        0.1566
     36 F         140.6069  141.4950  163.8795 F       1  UNL1       -0.2028
     37 C         140.4408  140.8319  166.3860 C.ar    1  UNL1        0.0258
     38 C         141.1684  140.8528  167.6976 C.ar    1  UNL1        0.0783
@<TRIPOS>BOND
     1    12    13    2
     2    13    14    1
     3    14    15    1
     4    15    16    1
     5    16    17   ar
     6    17    18   ar
     7    18    19   ar
     8    19    11    1
     9    11     9    1
    10     9     1    1
    11     1     2    1
    12     2     3    1
    13     3     4    1
    14     4    24    1
    15    24    25    1
    16    25    26    1
    17    26    27    1
    18    27    28   ar
    19    28    29    2
    20    28    30   ar
    21    30    31   ar
    22    31    32   ar
    23    32    33   ar
    24    33    34   ar
    25    34    35   ar
    26    35    36    1
    27    35    37   ar
    28    37    38   ar
    29     4     5    1
    30     5     6    1
    31     4     7    1
    32     7     8    1
    33    19    20   ar
    34    20    21   ar
    35    21    22    1
    36    22    13   am
    37    21    16   ar
    38     6     1    1
    39     8     1    1
    40    37    25    1
    41    38    27   ar
    42    38    32   ar
    43     9    10    1
    44    22    23    1
@<TRIPOS>MOLECULE
*****
 38 44 0 0 0
SMALL
GASTEIGER

@<TRIPOS>ATOM
      1 C         138.5712  142.1239  161.3204 C.3     1  UNL1        0.0700
      2 C         137.8663  142.4530  162.6029 C.3     1  UNL1        0.0193
      3 C         137.8165  141.4440  163.7117 C.3     1  UNL1        0.0286
      4 C         138.4717  140.1058  163.5380 C.3     1  UNL1        0.0933
      5 C         139.1767  139.7767  162.2555 C.3     1  UNL1        0.0286
      6 C         139.2264  140.7858  161.1467 C.3     1  UNL1        0.0193
      7 O         138.5254  140.6264  162.9022 O.3     1  UNL1       -0.3571
      8 C         138.5704  141.5386  161.8996 C.3     1  UNL1        0.1562
      9 N         138.6210  143.1329  160.2116 N.3     1  UNL1       -0.2926
     10 H         138.6137  142.6093  159.3364 H       1  UNL1        0.1236
     11 C         139.7648  144.0997  160.1281 C.3     1  UNL1        0.1152
     12 O         146.0220  141.3525  163.8765 O.2     1  UNL1       -0.2707
     13 C         144.9211  142.3640  163.7544 C.2     1  UNL1        0.2718
     14 C         144.8051  143.4712  164.7597 C.3     1  UNL1        0.2898
     15 O         143.7041  144.4828  164.6375 O.3     1  UNL1       -0.4628
     16 C         142.7193  144.3870  163.5102 C.ar    1  UNL1        0.1708
     17 C         141.6184  145.3985  163.3881 C.ar    1  UNL1        0.0411
     18 C         140.6335  145.3027  162.2608 C.ar    1  UNL1        0.0193
     19 C         140.7496  144.1955  161.2555 C.ar    1  UNL1        0.0765
     20 N         141.8506  143.1840  161.3776 N.ar    1  UNL1       -0.2304
     21 C         142.8354  143.2798  162.5049 C.ar    1  UNL1        0.1682
     22 N         143.9363  142.2683  162.6270 N.am    1  UNL1       -0.2639
     23 H         144.0124  141.5416  161.9672 H       1  UNL1        0.1565
     24 C         138.4219  139.0968  164.6468 C.3     1  UNL1        0.0336
     25 C         139.2305  139.3103  165.8920 C.3     1  UNL1        0.0511
     26 C         138.7109  139.8177  167.2045 C.3     1  UNL1        0.1136
     27 N         139.8598  139.8749  168.1671 N.ar    1  UNL1       -0.2940
     28 C         139.9452  140.2958  169.6042 C.ar    1  UNL1        0.2610
     29 O         138.7154  140.7678  170.3218 O.2     1  UNL1       -0.2670
     30 C         141.2603  140.2447  170.3238 C.ar    1  UNL1        0.0623
     31 C         142.4900  139.7727  169.6063 C.ar    1  UNL1        0.0254
     32 C         142.4047  139.3518  168.1691 C.ar    1  UNL1        0.0971
     33 N         143.4546  138.8446  167.2147 N.ar    1  UNL1       -0.2400
     34 C         143.2161  138.4576  165.7853 C.ar    1  UNL1        0.1281
     35 C         141.8391  138.5623  165.1996 C.ar    1  UNL1        0.1566
     36 F         141.6007  138.1752  163.7702 F       1  UNL1       -0.2028
     37 C         140.7006  139.0540  166.0435 C.ar    1  UNL1        0.0258
     38 C         141.0896  139.4029  167.4495 C.ar    1  UNL1        0.0783
@<TRIPOS>BOND
     1    12    13    2
     2    13    14    1
     3    14    15    1
     4    15    16    1
     5    16    17   ar
     6    17    18   ar
     7    18    19   ar
     8    19    11    1
     9    11     9    1
    10     9     1    1
    11     1     2    1
    12     2     3    1
    13     3     4    1
    14     4    24    1
    15    24    25    1
    16    25    26    1
    17    26    27    1
    18    27    28   ar
    19    28    29    2
    20    28    30   ar
    21    30    31   ar
    22    31    32   ar
    23    32    33   ar
    24    33    34   ar
    25    34    35   ar
    26    35    36    1
    27    35    37   ar
    28    37    38   ar
    29     4     5    1
    30     5     6    1
    31     4     7    1
    32     7     8    1
    33    19    20   ar
    34    20    21   ar
    35    21    22    1
    36    22    13   am
    37    21    16   ar
    38     6     1    1
    39     8     1    1
    40    37    25    1
    41    38    27   ar
    42    38    32   ar
    43     9    10    1
    44    22    23    1
@<TRIPOS>MOLECULE
*****
 38 44 0 0 0
SMALL
GASTEIGER

@<TRIPOS>ATOM
      1 C         138.3038  139.9464  159.4104 C.3     1  UNL1        0.0700
      2 C         139.6176  139.2232  159.4413 C.3     1  UNL1        0.0193
      3 C         139.9890  138.3932  160.6343 C.3     1  UNL1        0.0286
      4 C         139.0465  138.2864  161.7964 C.3     1  UNL1        0.0933
      5 C         137.7327  139.0096  161.7655 C.3     1  UNL1        0.0286
      6 C         137.3614  139.8396  160.5724 C.3     1  UNL1        0.0193
      7 O         138.7993  138.7531  161.1647 O.3     1  UNL1       -0.3571
      8 C         138.4635  139.5036  160.0860 C.3     1  UNL1        0.1562
      9 N         137.9325  140.7764  158.2173 N.3     1  UNL1       -0.2926
     10 H         138.4165  140.3725  157.4155 H       1  UNL1        0.1236
     11 C         138.2277  142.2470  158.2056 C.3     1  UNL1        0.1152
     12 O         138.7396  145.1346  165.4270 O.2     1  UNL1       -0.2707
     13 C         139.3859  144.7818  164.1202 C.2     1  UNL1        0.2718
     14 C         140.8493  145.0388  163.9137 C.3     1  UNL1        0.2898
     15 O         141.4956  144.6860  162.6069 O.3     1  UNL1       -0.4628
     16 C         140.6786  144.0762  161.5066 C.ar    1  UNL1        0.1708
     17 C         141.3250  143.7235  160.1998 C.ar    1  UNL1        0.0411
     18 C         140.5080  143.1137  159.0994 C.ar    1  UNL1        0.0193
     19 C         139.0447  142.8567  159.3059 C.ar    1  UNL1        0.0765
     20 N         138.3984  143.2095  160.6127 N.ar    1  UNL1       -0.2304
     21 C         139.2153  143.8193  161.7130 C.ar    1  UNL1        0.1682
     22 N         138.5690  144.1720  163.0198 N.am    1  UNL1       -0.2639
     23 H         137.6085  144.0034  163.1553 H       1  UNL1        0.1565
     24 C         139.4179  137.4564  162.9894 C.3     1  UNL1        0.0336
     25 C         139.9830  138.1135  164.2136 C.3     1  UNL1        0.0511
     26 C         139.2187  138.4752  165.4526 C.3     1  UNL1        0.1136
     27 N         140.1750  139.1095  166.4186 N.ar    1  UNL1       -0.2940
     28 C         139.9867  139.6634  167.7998 C.ar    1  UNL1        0.2610
     29 O         138.6313  139.6330  168.4417 O.2     1  UNL1       -0.2670
     30 C         141.1538  140.2476  168.5391 C.ar    1  UNL1        0.0623
     31 C         142.5091  140.2780  167.8971 C.ar    1  UNL1        0.0254
     32 C         142.6974  139.7241  166.5159 C.ar    1  UNL1        0.0971
     33 N         143.9194  139.6232  165.6402 N.ar    1  UNL1       -0.2400
     34 C         143.9544  139.0353  164.2607 C.ar    1  UNL1        0.1281
     35 C         142.7005  138.4858  163.6476 C.ar    1  UNL1        0.1566
     36 F         142.7355  137.8979  162.2680 F       1  UNL1       -0.2028
     37 C         141.4117  138.5243  164.4139 C.ar    1  UNL1        0.0258
     38 C         141.5303  139.1399  165.7767 C.ar    1  UNL1        0.0783
@<TRIPOS>BOND
     1    12    13    2
     2    13    14    1
     3    14    15    1
     4    15    16    1
     5    16    17   ar
     6    17    18   ar
     7    18    19   ar
     8    19    11    1
     9    11     9    1
    10     9     1    1
    11     1     2    1
    12     2     3    1
    13     3     4    1
    14     4    24    1
    15    24    25    1
    16    25    26    1
    17    26    27    1
    18    27    28   ar
    19    28    29    2
    20    28    30   ar
    21    30    31   ar
    22    31    32   ar
    23    32    33   ar
    24    33    34   ar
    25    34    35   ar
    26    35    36    1
    27    35    37   ar
    28    37    38   ar
    29     4     5    1
    30     5     6    1
    31     4     7    1
    32     7     8    1
    33    19    20   ar
    34    20    21   ar
    35    21    22    1
    36    22    13   am
    37    21    16   ar
    38     6     1    1
    39     8     1    1
    40    37    25    1
    41    38    27   ar
    42    38    32   ar
    43     9    10    1
    44    22    23    1
@<TRIPOS>MOLECULE
*****
 38 44 0 0 0
SMALL
GASTEIGER

@<TRIPOS>ATOM
      1 C         137.8792  142.5119  164.4407 C.3     1  UNL1        0.0700
      2 C         138.5207  141.3932  165.2068 C.3     1  UNL1        0.0193
      3 C         138.7286  140.0592  164.5532 C.3     1  UNL1        0.0286
      4 C         138.2951  139.8439  163.1334 C.3     1  UNL1        0.0933
      5 C         137.6536  140.9627  162.3673 C.3     1  UNL1        0.0286
      6 C         137.4456  142.2967  163.0210 C.3     1  UNL1        0.0193
      7 O         138.1603  140.5924  163.4491 O.3     1  UNL1       -0.3571
      8 C         137.9722  141.7986  164.0401 C.3     1  UNL1        0.1562
      9 N         137.6712  143.8459  165.0944 N.3     1  UNL1       -0.2926
     10 H         136.8644  144.2738  164.6402 H       1  UNL1        0.1236
     11 C         138.7691  144.8678  165.0794 C.3     1  UNL1        0.1152
     12 O         145.8426  141.8610  163.7852 O.2     1  UNL1       -0.2707
     13 C         144.6721  142.6752  163.3194 C.2     1  UNL1        0.2718
     14 C         144.6889  143.3014  161.9564 C.3     1  UNL1        0.2898
     15 O         143.5183  144.1156  161.4906 O.3     1  UNL1       -0.4628
     16 C         142.3310  144.3036  162.3878 C.ar    1  UNL1        0.1708
     17 C         141.1606  145.1178  161.9220 C.ar    1  UNL1        0.0411
     18 C         139.9732  145.3059  162.8192 C.ar    1  UNL1        0.0193
     19 C         139.9564  144.6797  164.1822 C.ar    1  UNL1        0.0765
     20 N         141.1270  143.8655  164.6480 N.ar    1  UNL1       -0.2304
     21 C         142.3143  143.6775  163.7508 C.ar    1  UNL1        0.1682
     22 N         143.4847  142.8633  164.2166 N.am    1  UNL1       -0.2639
     23 H         143.4737  142.4524  165.1111 H       1  UNL1        0.1565
     24 C         138.5030  138.5100  162.4797 C.3     1  UNL1        0.0336
     25 C         139.3819  138.3967  161.2695 C.3     1  UNL1        0.0511
     26 C         138.9206  138.3927  159.8421 C.3     1  UNL1        0.1136
     27 N         140.1300  138.2610  158.9645 N.ar    1  UNL1       -0.2940
     28 C         140.2867  138.2016  157.4740 C.ar    1  UNL1        0.2610
     29 O         139.0780  138.2790  156.5890 O.2     1  UNL1       -0.2670
     30 C         141.6521  138.0648  156.8683 C.ar    1  UNL1        0.0623
     31 C         142.8608  137.9873  157.7532 C.ar    1  UNL1        0.0254
     32 C         142.7041  138.0468  159.2438 C.ar    1  UNL1        0.0971
     33 N         143.7192  137.9931  160.3560 N.ar    1  UNL1       -0.2400
     34 C         143.4079  138.0651  161.8216 C.ar    1  UNL1        0.1281
     35 C         141.9865  138.2023  162.2806 C.ar    1  UNL1        0.1566
     36 F         141.6752  138.2743  163.7461 F       1  UNL1       -0.2028
     37 C         140.8763  138.2674  161.2740 C.ar    1  UNL1        0.0258
     38 C         141.3386  138.1836  159.8495 C.ar    1  UNL1        0.0783
@<TRIPOS>BOND
     1    12    13    2
     2    13    14    1
     3    14    15    1
     4    15    16    1
     5    16    17   ar
     6    17    18   ar
     7    18    19   ar
     8    19    11    1
     9    11     9    1
    10     9     1    1
    11     1     2    1
    12     2     3    1
    13     3     4    1
    14     4    24    1
    15    24    25    1
    16    25    26    1
    17    26    27    1
    18    27    28   ar
    19    28    29    2
    20    28    30   ar
    21    30    31   ar
    22    31    32   ar
    23    32    33   ar
    24    33    34   ar
    25    34    35   ar
    26    35    36    1
    27    35    37   ar
    28    37    38   ar
    29     4     5    1
    30     5     6    1
    31     4     7    1
    32     7     8    1
    33    19    20   ar
    34    20    21   ar
    35    21    22    1
    36    22    13   am
    37    21    16   ar
    38     6     1    1
    39     8     1    1
    40    37    25    1
    41    38    27   ar
    42    38    32   ar
    43     9    10    1
    44    22    23    1
@<TRIPOS>MOLECULE
*****
 38 44 0 0 0
SMALL
GASTEIGER

@<TRIPOS>ATOM
      1 C         144.7160  141.6723  161.8881 C.3     1  UNL1        0.0700
      2 C         144.1761  140.3081  161.5759 C.3     1  UNL1        0.0193
      3 C         143.8817  139.3456  162.6880 C.3     1  UNL1        0.0286
      4 C         144.1272  139.7471  164.1123 C.3     1  UNL1        0.0933
      5 C         144.6671  141.1113  164.4244 C.3     1  UNL1        0.0286
      6 C         144.9616  142.0739  163.3123 C.3     1  UNL1        0.0193
      7 O         144.3037  140.3088  163.5366 O.3     1  UNL1       -0.3571
      8 C         144.5700  141.1792  162.5312 C.3     1  UNL1        0.1562
      9 N         145.0105  142.6349  160.7760 N.3     1  UNL1       -0.2926
     10 H         145.3162  143.5046  161.2125 H       1  UNL1        0.1236
     11 C         143.9362  142.9977  159.7940 C.3     1  UNL1        0.1152
     12 O         138.7870  145.1748  165.2249 O.2     1  UNL1       -0.2707
     13 C         139.0829  144.5909  163.8753 C.2     1  UNL1        0.2718
     14 C         137.9585  144.1487  162.9864 C.3     1  UNL1        0.2898
     15 O         138.2545  143.5648  161.6368 O.3     1  UNL1       -0.4628
     16 C         139.6749  143.4231  161.1761 C.ar    1  UNL1        0.1708
     17 C         139.9709  142.8392  159.8265 C.ar    1  UNL1        0.0411
     18 C         141.3914  142.6974  159.3658 C.ar    1  UNL1        0.0193
     19 C         142.5158  143.1395  160.2547 C.ar    1  UNL1        0.0765
     20 N         142.2198  143.7234  161.6043 N.ar    1  UNL1       -0.2304
     21 C         140.7994  143.8652  162.0650 C.ar    1  UNL1        0.1682
     22 N         140.5034  144.4491  163.4146 N.am    1  UNL1       -0.2639
     23 H         141.2414  144.7392  163.9980 H       1  UNL1        0.1565
     24 C         143.8327  138.7845  165.2243 C.3     1  UNL1        0.0336
     25 C         142.7836  139.1149  166.2442 C.3     1  UNL1        0.0511
     26 C         143.0311  139.4736  167.6795 C.3     1  UNL1        0.1136
     27 N         141.7032  139.7250  168.3301 N.ar    1  UNL1       -0.2940
     28 C         141.3287  140.1127  169.7299 C.ar    1  UNL1        0.2610
     29 O         142.3970  140.3160  170.7631 O.2     1  UNL1       -0.2670
     30 C         139.8860  140.2972  170.0965 C.ar    1  UNL1        0.0623
     31 C         138.8177  140.0939  169.0633 C.ar    1  UNL1        0.0254
     32 C         139.1921  139.7062  167.6636 C.ar    1  UNL1        0.0971
     33 N         138.3492  139.4403  166.4433 N.ar    1  UNL1       -0.2400
     34 C         138.8731  139.0558  165.0914 C.ar    1  UNL1        0.1281
     35 C         140.3498  138.9080  164.8737 C.ar    1  UNL1        0.1566
     36 F         140.8738  138.5235  163.5218 F       1  UNL1       -0.2028
     37 C         141.3026  139.1447  166.0078 C.ar    1  UNL1        0.0258
     38 C         140.6349  139.5217  167.2970 C.ar    1  UNL1        0.0783
@<TRIPOS>BOND
     1    12    13    2
     2    13    14    1
     3    14    15    1
     4    15    16    1
     5    16    17   ar
     6    17    18   ar
     7    18    19   ar
     8    19    11    1
     9    11     9    1
    10     9     1    1
    11     1     2    1
    12     2     3    1
    13     3     4    1
    14     4    24    1
    15    24    25    1
    16    25    26    1
    17    26    27    1
    18    27    28   ar
    19    28    29    2
    20    28    30   ar
    21    30    31   ar
    22    31    32   ar
    23    32    33   ar
    24    33    34   ar
    25    34    35   ar
    26    35    36    1
    27    35    37   ar
    28    37    38   ar
    29     4     5    1
    30     5     6    1
    31     4     7    1
    32     7     8    1
    33    19    20   ar
    34    20    21   ar
    35    21    22    1
    36    22    13   am
    37    21    16   ar
    38     6     1    1
    39     8     1    1
    40    37    25    1
    41    38    27   ar
    42    38    32   ar
    43     9    10    1
    44    22    23    1
@<TRIPOS>MOLECULE
*****
 38 44 0 0 0
SMALL
GASTEIGER

@<TRIPOS>ATOM
      1 C         142.0597  139.6825  166.8312 C.3     1  UNL1        0.0700
      2 C         143.1736  139.0281  166.0690 C.3     1  UNL1        0.0193
      3 C         142.8673  138.1998  164.8565 C.3     1  UNL1        0.0286
      4 C         141.4470  138.0258  164.4063 C.3     1  UNL1        0.0933
      5 C         140.3331  138.6803  165.1685 C.3     1  UNL1        0.0286
      6 C         140.6395  139.5086  166.3810 C.3     1  UNL1        0.0193
      7 O         141.5657  138.4890  165.0767 O.3     1  UNL1       -0.3571
      8 C         141.8426  139.2380  166.1729 C.3     1  UNL1        0.1562
      9 N         142.3661  140.5109  168.0437 N.3     1  UNL1       -0.2926
     10 H         141.5463  140.4618  168.6486 H       1  UNL1        0.1236
     11 C         142.7065  141.9639  167.8928 C.3     1  UNL1        0.1152
     12 O         138.4182  145.2199  162.2574 O.2     1  UNL1       -0.2707
     13 C         139.7531  144.7913  162.7906 C.2     1  UNL1        0.2718
     14 C         140.9934  145.0193  161.9785 C.3     1  UNL1        0.2898
     15 O         142.3284  144.5906  162.5117 O.3     1  UNL1       -0.4628
     16 C         142.4229  143.9340  163.8570 C.ar    1  UNL1        0.1708
     17 C         143.7578  143.5053  164.3901 C.ar    1  UNL1        0.0411
     18 C         143.8524  142.8486  165.7355 C.ar    1  UNL1        0.0193
     19 C         142.6120  142.6205  166.5476 C.ar    1  UNL1        0.0765
     20 N         141.2771  143.0492  166.0143 N.ar    1  UNL1       -0.2304
     21 C         141.1825  143.7059  164.6691 C.ar    1  UNL1        0.1682
     22 N         139.8477  144.1346  164.1359 N.am    1  UNL1       -0.2639
     23 H         139.0336  143.9849  164.6690 H       1  UNL1        0.1565
     24 C         141.1407  137.1975  163.1939 C.3     1  UNL1        0.0336
     25 C         141.0284  137.8506  161.8482 C.3     1  UNL1        0.0511
     26 C         142.1265  137.9745  160.8339 C.3     1  UNL1        0.1136
     27 N         141.5751  138.6949  159.6393 N.ar    1  UNL1       -0.2940
     28 C         142.1973  139.0997  158.3359 C.ar    1  UNL1        0.2610
     29 O         143.6363  138.7784  158.0599 O.2     1  UNL1       -0.2670
     30 C         141.3806  139.8260  157.3086 C.ar    1  UNL1        0.0623
     31 C         139.9417  140.1473  157.5846 C.ar    1  UNL1        0.0254
     32 C         139.3195  139.7425  158.8880 C.ar    1  UNL1        0.0971
     33 N         137.9250  139.9289  159.4276 N.ar    1  UNL1       -0.2400
     34 C         137.4423  139.4630  160.7692 C.ar    1  UNL1        0.1281
     35 C         138.3790  138.7458  161.6956 C.ar    1  UNL1        0.1566
     36 F         137.8963  138.2799  163.0372 F       1  UNL1       -0.2028
     37 C         139.7983  138.4944  161.2805 C.ar    1  UNL1        0.0258
     38 C         140.1362  139.0162  159.9153 C.ar    1  UNL1        0.0783
@<TRIPOS>BOND
     1    12    13    2
     2    13    14    1
     3    14    15    1
     4    15    16    1
     5    16    17   ar
     6    17    18   ar
     7    18    19   ar
     8    19    11    1
     9    11     9    1
    10     9     1    1
    11     1     2    1
    12     2     3    1
    13     3     4    1
    14     4    24    1
    15    24    25    1
    16    25    26    1
    17    26    27    1
    18    27    28   ar
    19    28    29    2
    20    28    30   ar
    21    30    31   ar
    22    31    32   ar
    23    32    33   ar
    24    33    34   ar
    25    34    35   ar
    26    35    36    1
    27    35    37   ar
    28    37    38   ar
    29     4     5    1
    30     5     6    1
    31     4     7    1
    32     7     8    1
    33    19    20   ar
    34    20    21   ar
    35    21    22    1
    36    22    13   am
    37    21    16   ar
    38     6     1    1
    39     8     1    1
    40    37    25    1
    41    38    27   ar
    42    38    32   ar
    43     9    10    1
    44    22    23    1
