@<TRIPOS>MOLECULE
*****
 35 37 0 0 0
SMALL
GASTEIGER

@<TRIPOS>ATOM
      1 C         141.9059  141.9447  163.4679 C.3     1  UNL1        0.1017
      2 C         141.4998  141.0707  162.3183 C.3     1  UNL1        0.0394
      3 C         142.0278  141.3485  160.9420 C.3     1  UNL1        0.0739
      4 N         142.9618  142.5001  160.7153 N.3     1  UNL1       -0.2704
      5 C         143.3678  143.3740  161.8648 C.3     1  UNL1        0.1037
      6 C         142.8399  143.0963  163.2410 C.3     1  UNL1        0.1490
      7 C         142.1035  140.7146  165.7477 C.2     1  UNL1        0.2488
      8 O         143.3570  140.0399  165.2750 O.2     1  UNL1       -0.2700
      9 N         141.3780  141.6670  164.8441 N.am    1  UNL1       -0.2999
     10 H         140.5552  142.1098  165.1544 H       1  UNL1        0.1498
     11 C         140.0962  140.4246  167.3715 C.ar    1  UNL1        0.1443
     12 C         139.5683  140.1470  168.7477 C.ar    1  UNL1        0.0520
     13 C         140.5197  139.8816  169.8766 C.ar    1  UNL1        0.0553
     14 N         139.9918  139.6040  171.2529 N.pl3   1  UNL1       -0.3563
     15 C         141.9991  139.8939  169.6292 C.ar    1  UNL1        0.0709
     16 CL        142.9506  139.6286  170.7580 Cl      1  UNL1       -0.0810
     17 C         142.5270  140.1716  168.2529 C.ar    1  UNL1        0.0202
     18 C         141.5756  140.4369  167.1240 C.ar    1  UNL1        0.0882
     19 H         139.0208  139.5959  171.4153 H       1  UNL1        0.1424
     20 H         140.6162  139.4298  171.9938 H       1  UNL1        0.1424
     21 C         138.3303  139.5686  165.6688 C.3     1  UNL1        0.2525
     22 O         139.1447  140.6900  166.2426 O.3     1  UNL1       -0.4712
     23 O         143.2460  143.9702  164.3906 O.3     1  UNL1       -0.3505
     24 C         144.4402  143.6080  165.2228 C.3     1  UNL1        0.1741
     25 C         143.4897  142.7778  159.3390 C.3     1  UNL1        0.0760
     26 C         142.8306  143.8140  158.4778 C.3     1  UNL1        0.0646
     27 C         141.3916  144.1725  158.7041 C.3     1  UNL1        0.2068
     28 O         141.0231  145.1549  159.7760 O.3     1  UNL1       -0.4754
     29 C         140.1675  144.7210  160.9291 C.ar    1  UNL1        0.1387
     30 C         140.2431  145.4528  162.2363 C.ar    1  UNL1        0.0392
     31 C         139.3875  145.0189  163.3893 C.ar    1  UNL1        0.0327
     32 C         138.4562  143.8531  163.2352 C.ar    1  UNL1        0.1403
     33 F         137.6006  143.4192  164.3883 F       1  UNL1       -0.2042
     34 C         138.3806  143.1213  161.9281 C.ar    1  UNL1        0.0327
     35 C         139.2363  143.5553  160.7750 C.ar    1  UNL1        0.0392
@<TRIPOS>BOND
     1    21    22    1
     2    22    11    1
     3    11    12   ar
     4    12    13   ar
     5    13    14    1
     6    13    15   ar
     7    15    16    1
     8    15    17   ar
     9    17    18   ar
    10    18     7    1
    11     7     8    2
    12     7     9   am
    13     1     9    1
    14     1     2    1
    15     2     3    1
    16     3     4    1
    17     4    25    1
    18    25    26    1
    19    26    27    1
    20    27    28    1
    21    28    29    1
    22    29    30   ar
    23    30    31   ar
    24    31    32   ar
    25    32    33    1
    26    32    34   ar
    27    34    35   ar
    28     4     5    1
    29     5     6    1
    30     6    23    1
    31    23    24    1
    32    18    11   ar
    33     6     1    1
    34    35    29   ar
    35    14    19    1
    36    14    20    1
    37     9    10    1
@<TRIPOS>MOLECULE
*****
 35 37 0 0 0
SMALL
GASTEIGER

@<TRIPOS>ATOM
      1 C         140.7453  141.5368  163.1587 C.3     1  UNL1        0.1017
      2 C         141.7068  141.5703  162.0079 C.3     1  UNL1        0.0394
      3 C         141.2584  142.0808  160.6706 C.3     1  UNL1        0.0739
      4 N         139.8486  142.5578  160.4841 N.3     1  UNL1       -0.2704
      5 C         138.8870  142.5243  161.6349 C.3     1  UNL1        0.1037
      6 C         139.3354  142.0138  162.9722 C.3     1  UNL1        0.1490
      7 C         141.4678  141.9893  165.6129 C.2     1  UNL1        0.2488
      8 O         141.2937  143.4628  165.3925 O.2     1  UNL1       -0.2700
      9 N         141.1936  141.0264  164.4960 N.am    1  UNL1       -0.2999
     10 H         141.3078  140.0593  164.6407 H       1  UNL1        0.1498
     11 C         141.3941  140.1711  167.4673 C.ar    1  UNL1        0.1443
     12 C         141.8425  139.6606  168.8046 C.ar    1  UNL1        0.0520
     13 C         142.8128  140.4579  169.6248 C.ar    1  UNL1        0.0553
     14 N         143.2611  139.9474  170.9622 N.pl3   1  UNL1       -0.3563
     15 C         143.3348  141.7656  169.1078 C.ar    1  UNL1        0.0709
     16 CL        144.3051  142.5629  169.9281 Cl      1  UNL1       -0.0810
     17 C         142.8865  142.2761  167.7705 C.ar    1  UNL1        0.0202
     18 C         141.9161  141.4788  166.9503 C.ar    1  UNL1        0.0882
     19 H         142.9185  139.0890  171.3015 H       1  UNL1        0.1424
     20 H         143.8980  140.4706  171.5006 H       1  UNL1        0.1424
     21 C         138.9502  139.4977  166.8982 C.3     1  UNL1        0.2525
     22 O         140.4238  139.3738  166.6470 O.3     1  UNL1       -0.4712
     23 O         138.3738  141.9803  164.1230 O.3     1  UNL1       -0.3505
     24 C         137.7635  143.2541  164.6277 C.3     1  UNL1        0.1741
     25 C         139.4003  143.0682  159.1468 C.3     1  UNL1        0.0760
     26 C         138.5269  142.2171  158.2734 C.3     1  UNL1        0.0646
     27 C         138.7427  140.7338  158.2151 C.3     1  UNL1        0.2068
     28 O         137.9333  139.8231  159.0901 O.3     1  UNL1       -0.4754
     29 C         138.5643  139.1783  160.2884 C.ar    1  UNL1        0.1387
     30 C         139.9936  138.7268  160.2316 C.ar    1  UNL1        0.0392
     31 C         140.6247  138.0820  161.4298 C.ar    1  UNL1        0.0327
     32 C         139.8264  137.8885  162.6850 C.ar    1  UNL1        0.1403
     33 F         140.4574  137.2437  163.8833 F       1  UNL1       -0.2042
     34 C         138.3971  138.3400  162.7418 C.ar    1  UNL1        0.0327
     35 C         137.7660  138.9849  161.5435 C.ar    1  UNL1        0.0392
@<TRIPOS>BOND
     1    21    22    1
     2    22    11    1
     3    11    12   ar
     4    12    13   ar
     5    13    14    1
     6    13    15   ar
     7    15    16    1
     8    15    17   ar
     9    17    18   ar
    10    18     7    1
    11     7     8    2
    12     7     9   am
    13     1     9    1
    14     1     2    1
    15     2     3    1
    16     3     4    1
    17     4    25    1
    18    25    26    1
    19    26    27    1
    20    27    28    1
    21    28    29    1
    22    29    30   ar
    23    30    31   ar
    24    31    32   ar
    25    32    33    1
    26    32    34   ar
    27    34    35   ar
    28     4     5    1
    29     5     6    1
    30     6    23    1
    31    23    24    1
    32    18    11   ar
    33     6     1    1
    34    35    29   ar
    35    14    19    1
    36    14    20    1
    37     9    10    1
@<TRIPOS>MOLECULE
*****
 35 37 0 0 0
SMALL
GASTEIGER

@<TRIPOS>ATOM
      1 C         141.9196  142.0326  163.4491 C.3     1  UNL1        0.1017
      2 C         142.7685  143.2485  163.2235 C.3     1  UNL1        0.0394
      3 C         143.3075  143.5436  161.8550 C.3     1  UNL1        0.0739
      4 N         142.9976  142.6227  160.7123 N.3     1  UNL1       -0.2704
      5 C         142.1487  141.4068  160.9379 C.3     1  UNL1        0.1037
      6 C         141.6098  141.1117  162.3062 C.3     1  UNL1        0.1490
      7 C         142.1195  140.8031  165.7290 C.2     1  UNL1        0.2488
      8 O         143.3972  140.1638  165.2724 O.2     1  UNL1       -0.2700
      9 N         141.3807  141.7375  164.8174 N.am    1  UNL1       -0.2999
     10 H         140.5420  142.1571  165.1172 H       1  UNL1        0.1498
     11 C         140.0995  140.4131  167.3158 C.ar    1  UNL1        0.1443
     12 C         139.5605  140.1181  168.6841 C.ar    1  UNL1        0.0520
     13 C         140.5026  139.9179  169.8341 C.ar    1  UNL1        0.0553
     14 N         139.9635  139.6228  171.2025 N.pl3   1  UNL1       -0.3563
     15 C         141.9835  140.0127  169.6158 C.ar    1  UNL1        0.0709
     16 CL        142.9255  139.8125  170.7658 Cl      1  UNL1       -0.0810
     17 C         142.5225  140.3078  168.2475 C.ar    1  UNL1        0.0202
     18 C         141.5804  140.5080  167.0975 C.ar    1  UNL1        0.0882
     19 H         138.9915  139.5605  171.3458 H       1  UNL1        0.1424
     20 H         140.5818  139.4914  171.9574 H       1  UNL1        0.1424
     21 C         138.4407  139.4381  165.5701 C.3     1  UNL1        0.2525
     22 O         139.1575  140.6133  166.1658 O.3     1  UNL1       -0.4712
     23 O         140.7609  139.8957  162.5318 O.3     1  UNL1       -0.3505
     24 C         141.4074  138.5668  162.7883 C.3     1  UNL1        0.1741
     25 C         143.5365  142.9178  159.3440 C.3     1  UNL1        0.0760
     26 C         142.7435  143.7630  158.3917 C.3     1  UNL1        0.0646
     27 C         141.5450  144.5209  158.8810 C.3     1  UNL1        0.2068
     28 O         140.2558  143.7992  159.1401 O.3     1  UNL1       -0.4754
     29 C         139.6094  143.8802  160.4912 C.ar    1  UNL1        0.1387
     30 C         138.6291  142.8280  160.9179 C.ar    1  UNL1        0.0392
     31 C         137.9827  142.9090  162.2690 C.ar    1  UNL1        0.0327
     32 C         138.3166  144.0421  163.1936 C.ar    1  UNL1        0.1403
     33 F         137.6702  144.1230  164.5447 F       1  UNL1       -0.2042
     34 C         139.2969  145.0942  162.7669 C.ar    1  UNL1        0.0327
     35 C         139.9433  145.0132  161.4157 C.ar    1  UNL1        0.0392
@<TRIPOS>BOND
     1    21    22    1
     2    22    11    1
     3    11    12   ar
     4    12    13   ar
     5    13    14    1
     6    13    15   ar
     7    15    16    1
     8    15    17   ar
     9    17    18   ar
    10    18     7    1
    11     7     8    2
    12     7     9   am
    13     1     9    1
    14     1     2    1
    15     2     3    1
    16     3     4    1
    17     4    25    1
    18    25    26    1
    19    26    27    1
    20    27    28    1
    21    28    29    1
    22    29    30   ar
    23    30    31   ar
    24    31    32   ar
    25    32    33    1
    26    32    34   ar
    27    34    35   ar
    28     4     5    1
    29     5     6    1
    30     6    23    1
    31    23    24    1
    32    18    11   ar
    33     6     1    1
    34    35    29   ar
    35    14    19    1
    36    14    20    1
    37     9    10    1
@<TRIPOS>MOLECULE
*****
 35 37 0 0 0
SMALL
GASTEIGER

@<TRIPOS>ATOM
      1 C         141.6055  141.6865  163.4599 C.3     1  UNL1        0.1017
      2 C         141.7030  140.5686  162.4645 C.3     1  UNL1        0.0394
      3 C         141.7305  140.8724  160.9958 C.3     1  UNL1        0.0739
      4 N         141.6606  142.2940  160.5226 N.3     1  UNL1       -0.2704
      5 C         141.5632  143.4120  161.5179 C.3     1  UNL1        0.1037
      6 C         141.5356  143.1082  162.9866 C.3     1  UNL1        0.1490
      7 C         142.7918  141.6416  165.7709 C.2     1  UNL1        0.2488
      8 O         144.0333  142.2042  165.1446 O.2     1  UNL1       -0.2700
      9 N         141.5779  141.3828  164.9286 N.am    1  UNL1       -0.2999
     10 H         140.7631  141.0136  165.3397 H       1  UNL1        0.1498
     11 C         142.6018  139.9228  167.7099 C.ar    1  UNL1        0.1443
     12 C         142.5742  139.6192  169.1785 C.ar    1  UNL1        0.0520
     13 C         142.7090  140.7305  170.1769 C.ar    1  UNL1        0.0553
     14 N         142.6814  140.4268  171.6456 N.pl3   1  UNL1       -0.3563
     15 C         142.8713  142.1456  169.7066 C.ar    1  UNL1        0.0709
     16 CL        143.0061  143.2569  170.7050 Cl      1  UNL1       -0.0810
     17 C         142.8989  142.4493  168.2380 C.ar    1  UNL1        0.0202
     18 C         142.7642  141.3379  167.2396 C.ar    1  UNL1        0.0882
     19 H         142.5748  139.4980  171.9543 H       1  UNL1        0.1424
     20 H         142.7698  141.1562  172.3009 H       1  UNL1        0.1424
     21 C         143.6866  138.0803  166.2341 C.3     1  UNL1        0.2525
     22 O         142.4671  138.8115  166.7115 O.3     1  UNL1       -0.4712
     23 O         141.4382  144.2261  163.9820 O.3     1  UNL1       -0.3505
     24 C         140.1977  145.0670  164.0464 C.3     1  UNL1        0.1741
     25 C         141.6882  142.5978  159.0539 C.3     1  UNL1        0.0760
     26 C         140.4473  143.0829  158.3650 C.3     1  UNL1        0.0646
     27 C         139.1412  142.3803  158.5897 C.3     1  UNL1        0.2068
     28 O         138.1929  142.8779  159.6400 O.3     1  UNL1       -0.4754
     29 C         138.0834  142.1601  160.9525 C.ar    1  UNL1        0.1387
     30 C         137.9185  142.9405  162.2227 C.ar    1  UNL1        0.0392
     31 C         137.8090  142.2227  163.5352 C.ar    1  UNL1        0.0327
     32 C         137.8645  140.7242  163.5775 C.ar    1  UNL1        0.1403
     33 F         137.7551  140.0064  164.8899 F       1  UNL1       -0.2042
     34 C         138.0294  139.9438  162.3072 C.ar    1  UNL1        0.0327
     35 C         138.1389  140.6617  160.9946 C.ar    1  UNL1        0.0392
@<TRIPOS>BOND
     1    21    22    1
     2    22    11    1
     3    11    12   ar
     4    12    13   ar
     5    13    14    1
     6    13    15   ar
     7    15    16    1
     8    15    17   ar
     9    17    18   ar
    10    18     7    1
    11     7     8    2
    12     7     9   am
    13     1     9    1
    14     1     2    1
    15     2     3    1
    16     3     4    1
    17     4    25    1
    18    25    26    1
    19    26    27    1
    20    27    28    1
    21    28    29    1
    22    29    30   ar
    23    30    31   ar
    24    31    32   ar
    25    32    33    1
    26    32    34   ar
    27    34    35   ar
    28     4     5    1
    29     5     6    1
    30     6    23    1
    31    23    24    1
    32    18    11   ar
    33     6     1    1
    34    35    29   ar
    35    14    19    1
    36    14    20    1
    37     9    10    1
@<TRIPOS>MOLECULE
*****
 35 37 0 0 0
SMALL
GASTEIGER

@<TRIPOS>ATOM
      1 C         140.0544  141.5101  163.4489 C.3     1  UNL1        0.1017
      2 C         138.6135  141.7822  163.1333 C.3     1  UNL1        0.0394
      3 C         138.2136  142.1907  161.7465 C.3     1  UNL1        0.0739
      4 N         139.2547  142.3272  160.6753 N.3     1  UNL1       -0.2704
      5 C         140.6957  142.0551  160.9908 C.3     1  UNL1        0.1037
      6 C         141.0955  141.6465  162.3776 C.3     1  UNL1        0.1490
      7 C         140.8127  142.1457  165.8511 C.2     1  UNL1        0.2488
      8 O         140.7712  143.5984  165.4799 O.2     1  UNL1       -0.2700
      9 N         140.4543  141.1015  164.8356 N.am    1  UNL1       -0.2999
     10 H         140.4815  140.1480  165.0793 H       1  UNL1        0.1498
     11 C         142.3300  140.7566  167.4381 C.ar    1  UNL1        0.1443
     12 C         142.7298  140.3480  168.8249 C.ar    1  UNL1        0.0520
     13 C         142.0123  140.9200  170.0115 C.ar    1  UNL1        0.0553
     14 N         142.4122  140.5113  171.3983 N.pl3   1  UNL1       -0.3563
     15 C         140.8949  141.9004  169.8113 C.ar    1  UNL1        0.0709
     16 CL        140.1774  142.4724  170.9980 Cl      1  UNL1       -0.0810
     17 C         140.4951  142.3090  168.4246 C.ar    1  UNL1        0.0202
     18 C         141.2126  141.7371  167.2380 C.ar    1  UNL1        0.0882
     19 H         143.1456  139.8678  171.5297 H       1  UNL1        0.1424
     20 H         141.9413  140.8867  172.1771 H       1  UNL1        0.1424
     21 C         143.0393  138.7039  166.0122 C.3     1  UNL1        0.2525
     22 O         143.0475  140.1847  166.2515 O.3     1  UNL1       -0.4712
     23 O         142.5365  141.3744  162.6932 O.3     1  UNL1       -0.3505
     24 C         143.4196  142.4839  163.1823 C.3     1  UNL1        0.1741
     25 C         138.8548  142.7357  159.2885 C.3     1  UNL1        0.0760
     26 C         138.3250  141.7121  158.3285 C.3     1  UNL1        0.0646
     27 C         138.6959  140.2679  158.4919 C.3     1  UNL1        0.2068
     28 O         137.9889  139.4225  159.5095 O.3     1  UNL1       -0.4754
     29 C         138.7632  138.7905  160.6280 C.ar    1  UNL1        0.1387
     30 C         138.0566  138.3575  161.8782 C.ar    1  UNL1        0.0392
     31 C         138.8309  137.7255  162.9967 C.ar    1  UNL1        0.0327
     32 C         140.3119  137.5266  162.8650 C.ar    1  UNL1        0.1403
     33 F         141.0862  136.8946  163.9834 F       1  UNL1       -0.2042
     34 C         141.0184  137.9597  161.6147 C.ar    1  UNL1        0.0327
     35 C         140.2440  138.5917  160.4962 C.ar    1  UNL1        0.0392
@<TRIPOS>BOND
     1    21    22    1
     2    22    11    1
     3    11    12   ar
     4    12    13   ar
     5    13    14    1
     6    13    15   ar
     7    15    16    1
     8    15    17   ar
     9    17    18   ar
    10    18     7    1
    11     7     8    2
    12     7     9   am
    13     1     9    1
    14     1     2    1
    15     2     3    1
    16     3     4    1
    17     4    25    1
    18    25    26    1
    19    26    27    1
    20    27    28    1
    21    28    29    1
    22    29    30   ar
    23    30    31   ar
    24    31    32   ar
    25    32    33    1
    26    32    34   ar
    27    34    35   ar
    28     4     5    1
    29     5     6    1
    30     6    23    1
    31    23    24    1
    32    18    11   ar
    33     6     1    1
    34    35    29   ar
    35    14    19    1
    36    14    20    1
    37     9    10    1
@<TRIPOS>MOLECULE
*****
 35 37 0 0 0
SMALL
GASTEIGER

@<TRIPOS>ATOM
      1 C         141.4847  141.4592  163.3360 C.3     1  UNL1        0.1017
      2 C         142.7079  141.8993  162.5876 C.3     1  UNL1        0.0394
      3 C         142.6017  142.2981  161.1454 C.3     1  UNL1        0.0739
      4 N         141.2724  142.2568  160.4517 N.3     1  UNL1       -0.2704
      5 C         140.0492  141.8167  161.2001 C.3     1  UNL1        0.1037
      6 C         140.1553  141.4179  162.6422 C.3     1  UNL1        0.1490
      7 C         142.4983  141.8183  165.7010 C.2     1  UNL1        0.2488
      8 O         143.2998  142.9751  165.1819 O.2     1  UNL1       -0.2700
      9 N         141.5908  141.0604  164.7780 N.am    1  UNL1       -0.2999
     10 H         141.0648  140.3011  165.1188 H       1  UNL1        0.1498
     11 C         142.4821  139.9762  167.5331 C.ar    1  UNL1        0.1443
     12 C         142.5882  139.5774  168.9752 C.ar    1  UNL1        0.0520
     13 C         142.8165  140.6218  170.0273 C.ar    1  UNL1        0.0553
     14 N         142.9226  140.2230  171.4695 N.pl3   1  UNL1       -0.3563
     15 C         142.9388  142.0651  169.6374 C.ar    1  UNL1        0.0709
     16 CL        143.1672  143.1095  170.6896 Cl      1  UNL1       -0.0810
     17 C         142.8328  142.4639  168.1953 C.ar    1  UNL1        0.0202
     18 C         142.6044  141.4195  167.1432 C.ar    1  UNL1        0.0882
     19 H         142.8424  139.2757  171.7254 H       1  UNL1        0.1424
     20 H         143.0725  140.9084  172.1601 H       1  UNL1        0.1424
     21 C         143.4194  138.1981  165.8870 C.3     1  UNL1        0.2525
     22 O         142.2537  138.9318  166.4809 O.3     1  UNL1       -0.4712
     23 O         138.9321  140.9778  163.3906 O.3     1  UNL1       -0.3505
     24 C         138.5010  139.5419  163.3449 C.3     1  UNL1        0.1741
     25 C         141.1663  142.6557  159.0097 C.3     1  UNL1        0.0760
     26 C         140.7143  144.0387  158.6453 C.3     1  UNL1        0.0646
     27 C         140.8175  145.1499  159.6476 C.3     1  UNL1        0.2068
     28 O         139.6304  145.5131  160.4896 O.3     1  UNL1       -0.4754
     29 C         139.6061  145.1547  161.9460 C.ar    1  UNL1        0.1387
     30 C         138.3214  144.7273  162.5918 C.ar    1  UNL1        0.0392
     31 C         138.2970  144.3688  164.0481 C.ar    1  UNL1        0.0327
     32 C         139.5573  144.4378  164.8587 C.ar    1  UNL1        0.1403
     33 F         139.5329  144.0794  166.3150 F       1  UNL1       -0.2042
     34 C         140.8420  144.8652  164.2129 C.ar    1  UNL1        0.0327
     35 C         140.8663  145.2237  162.7565 C.ar    1  UNL1        0.0392
@<TRIPOS>BOND
     1    21    22    1
     2    22    11    1
     3    11    12   ar
     4    12    13   ar
     5    13    14    1
     6    13    15   ar
     7    15    16    1
     8    15    17   ar
     9    17    18   ar
    10    18     7    1
    11     7     8    2
    12     7     9   am
    13     1     9    1
    14     1     2    1
    15     2     3    1
    16     3     4    1
    17     4    25    1
    18    25    26    1
    19    26    27    1
    20    27    28    1
    21    28    29    1
    22    29    30   ar
    23    30    31   ar
    24    31    32   ar
    25    32    33    1
    26    32    34   ar
    27    34    35   ar
    28     4     5    1
    29     5     6    1
    30     6    23    1
    31    23    24    1
    32    18    11   ar
    33     6     1    1
    34    35    29   ar
    35    14    19    1
    36    14    20    1
    37     9    10    1
@<TRIPOS>MOLECULE
*****
 35 37 0 0 0
SMALL
GASTEIGER

@<TRIPOS>ATOM
      1 C         141.9296  141.6534  163.0712 C.3     1  UNL1        0.1017
      2 C         140.9355  141.6988  161.9489 C.3     1  UNL1        0.0394
      3 C         141.3396  142.2424  160.6105 C.3     1  UNL1        0.0739
      4 N         142.7379  142.7404  160.3944 N.3     1  UNL1       -0.2704
      5 C         143.7321  142.6950  161.5167 C.3     1  UNL1        0.1037
      6 C         143.3280  142.1515  162.8551 C.3     1  UNL1        0.1490
      7 C         141.0479  142.0411  165.4841 C.2     1  UNL1        0.2488
      8 O         140.9743  143.5159  165.2203 O.2     1  UNL1       -0.2700
      9 N         141.5255  141.1099  164.4095 N.am    1  UNL1       -0.2999
     10 H         141.5738  140.1419  164.5827 H       1  UNL1        0.1498
     11 C         139.6137  140.4108  166.9107 C.ar    1  UNL1        0.1443
     12 C         139.2097  139.8672  168.2491 C.ar    1  UNL1        0.0520
     13 C         139.8357  140.4105  169.4992 C.ar    1  UNL1        0.0553
     14 N         139.4316  139.8669  170.8377 N.pl3   1  UNL1       -0.3563
     15 C         140.8658  141.4972  169.4111 C.ar    1  UNL1        0.0709
     16 CL        141.4918  142.0405  170.6613 Cl      1  UNL1       -0.0810
     17 C         141.2698  142.0408  168.0727 C.ar    1  UNL1        0.0202
     18 C         140.6438  141.4975  166.8225 C.ar    1  UNL1        0.0882
     19 H         138.7555  139.1536  170.8955 H       1  UNL1        0.1424
     20 H         139.8424  140.2234  171.6582 H       1  UNL1        0.1424
     21 C         138.9754  138.3888  165.4094 C.3     1  UNL1        0.2525
     22 O         138.9877  139.8675  165.6605 O.3     1  UNL1       -0.4712
     23 O         144.3222  142.1060  163.9774 O.3     1  UNL1       -0.3505
     24 C         145.6027  141.3420  163.8145 C.3     1  UNL1        0.1741
     25 C         143.1420  143.2839  159.0560 C.3     1  UNL1        0.0760
     26 C         143.9509  142.4394  158.1167 C.3     1  UNL1        0.0646
     27 C         143.5657  141.0104  157.8721 C.3     1  UNL1        0.2068
     28 O         144.2190  139.9124  158.6579 O.3     1  UNL1       -0.4754
     29 C         143.4761  139.2484  159.7792 C.ar    1  UNL1        0.1387
     30 C         142.0445  138.8413  159.5930 C.ar    1  UNL1        0.0392
     31 C         141.3017  138.1773  160.7143 C.ar    1  UNL1        0.0327
     32 C         141.9905  137.9204  162.0218 C.ar    1  UNL1        0.1403
     33 F         141.2477  137.2564  163.1431 F       1  UNL1       -0.2042
     34 C         143.4222  138.3275  162.2080 C.ar    1  UNL1        0.0327
     35 C         144.1650  138.9916  161.0867 C.ar    1  UNL1        0.0392
@<TRIPOS>BOND
     1    21    22    1
     2    22    11    1
     3    11    12   ar
     4    12    13   ar
     5    13    14    1
     6    13    15   ar
     7    15    16    1
     8    15    17   ar
     9    17    18   ar
    10    18     7    1
    11     7     8    2
    12     7     9   am
    13     1     9    1
    14     1     2    1
    15     2     3    1
    16     3     4    1
    17     4    25    1
    18    25    26    1
    19    26    27    1
    20    27    28    1
    21    28    29    1
    22    29    30   ar
    23    30    31   ar
    24    31    32   ar
    25    32    33    1
    26    32    34   ar
    27    34    35   ar
    28     4     5    1
    29     5     6    1
    30     6    23    1
    31    23    24    1
    32    18    11   ar
    33     6     1    1
    34    35    29   ar
    35    14    19    1
    36    14    20    1
    37     9    10    1
@<TRIPOS>MOLECULE
*****
 35 37 0 0 0
SMALL
GASTEIGER

@<TRIPOS>ATOM
      1 C         139.8990  143.3921  163.9614 C.3     1  UNL1        0.1017
      2 C         140.9518  144.4386  163.7458 C.3     1  UNL1        0.0394
      3 C         141.1565  145.0265  162.3810 C.3     1  UNL1        0.0739
      4 N         140.3084  144.5678  161.2319 N.3     1  UNL1       -0.2704
      5 C         139.2556  143.5213  161.4476 C.3     1  UNL1        0.1037
      6 C         139.0509  142.9335  162.8123 C.3     1  UNL1        0.1490
      7 C         140.7665  141.9587  165.9471 C.2     1  UNL1        0.2488
      8 O         142.0433  141.7010  165.2033 O.2     1  UNL1       -0.2700
      9 N         139.6943  142.8043  165.3261 N.am    1  UNL1       -0.2999
     10 H         138.8563  142.9734  165.8143 H       1  UNL1        0.1498
     11 C         139.4551  140.3858  167.5459 C.ar    1  UNL1        0.1443
     12 C         139.2504  139.7980  168.9106 C.ar    1  UNL1        0.0520
     13 C         140.1523  140.1953  170.0413 C.ar    1  UNL1        0.0553
     14 N         139.9476  139.6074  171.4061 N.pl3   1  UNL1       -0.3563
     15 C         141.2590  141.1804  169.8074 C.ar    1  UNL1        0.0709
     16 CL        142.1610  141.5777  170.9381 Cl      1  UNL1       -0.0810
     17 C         141.4637  141.7682  168.4426 C.ar    1  UNL1        0.0202
     18 C         140.5617  141.3709  167.3119 C.ar    1  UNL1        0.0882
     19 H         139.2212  138.9608  171.5597 H       1  UNL1        0.1424
     20 H         140.5396  139.8682  172.1483 H       1  UNL1        0.1424
     21 C         138.2201  138.5428  166.1938 C.3     1  UNL1        0.2525
     22 O         138.5531  139.9884  166.4151 O.3     1  UNL1       -0.4712
     23 O         137.9982  141.8869  163.0280 O.3     1  UNL1       -0.3505
     24 C         138.3418  140.4348  162.8755 C.3     1  UNL1        0.1741
     25 C         140.5131  145.1556  159.8672 C.3     1  UNL1        0.0760
     26 C         141.2035  144.3563  158.8021 C.3     1  UNL1        0.0646
     27 C         142.2176  143.3184  159.1822 C.3     1  UNL1        0.2068
     28 O         143.4018  143.6985  160.0207 O.3     1  UNL1       -0.4754
     29 C         143.9225  142.7481  161.0578 C.ar    1  UNL1        0.1387
     30 C         144.5281  143.2778  162.3238 C.ar    1  UNL1        0.0392
     31 C         145.0488  142.3274  163.3609 C.ar    1  UNL1        0.0327
     32 C         144.9638  140.8474  163.1321 C.ar    1  UNL1        0.1403
     33 F         145.4845  139.8970  164.1693 F       1  UNL1       -0.2042
     34 C         144.3581  140.3177  161.8662 C.ar    1  UNL1        0.0327
     35 C         143.8375  141.2682  160.8290 C.ar    1  UNL1        0.0392
@<TRIPOS>BOND
     1    21    22    1
     2    22    11    1
     3    11    12   ar
     4    12    13   ar
     5    13    14    1
     6    13    15   ar
     7    15    16    1
     8    15    17   ar
     9    17    18   ar
    10    18     7    1
    11     7     8    2
    12     7     9   am
    13     1     9    1
    14     1     2    1
    15     2     3    1
    16     3     4    1
    17     4    25    1
    18    25    26    1
    19    26    27    1
    20    27    28    1
    21    28    29    1
    22    29    30   ar
    23    30    31   ar
    24    31    32   ar
    25    32    33    1
    26    32    34   ar
    27    34    35   ar
    28     4     5    1
    29     5     6    1
    30     6    23    1
    31    23    24    1
    32    18    11   ar
    33     6     1    1
    34    35    29   ar
    35    14    19    1
    36    14    20    1
    37     9    10    1
@<TRIPOS>MOLECULE
*****
 35 37 0 0 0
SMALL
GASTEIGER

@<TRIPOS>ATOM
      1 C         141.8773  138.5273  163.5813 C.3     1  UNL1        0.1017
      2 C         143.3077  138.4816  163.1320 C.3     1  UNL1        0.0394
      3 C         143.6329  138.4327  161.6684 C.3     1  UNL1        0.0739
      4 N         142.5277  138.4295  160.6543 N.3     1  UNL1       -0.2704
      5 C         141.0973  138.4752  161.1037 C.3     1  UNL1        0.1037
      6 C         140.7721  138.5241  162.5671 C.3     1  UNL1        0.1490
      7 C         141.6116  139.8804  165.7832 C.2     1  UNL1        0.2488
      8 O         141.9962  141.1359  165.0581 O.2     1  UNL1       -0.2700
      9 N         141.5521  138.5761  165.0448 N.am    1  UNL1       -0.2999
     10 H         141.2996  137.7521  165.5208 H       1  UNL1        0.1498
     11 C         139.8573  140.0094  167.6952 C.ar    1  UNL1        0.1443
     12 C         139.5321  140.0582  169.1587 C.ar    1  UNL1        0.0520
     13 C         140.6361  140.0269  170.1737 C.ar    1  UNL1        0.0553
     14 N         140.3108  140.0757  171.6373 N.pl3   1  UNL1       -0.3563
     15 C         142.0652  139.9467  169.7253 C.ar    1  UNL1        0.0709
     16 CL        143.1691  139.9154  170.7403 Cl      1  UNL1       -0.0810
     17 C         142.3903  139.8979  168.2618 C.ar    1  UNL1        0.0202
     18 C         141.2864  139.9293  167.2468 C.ar    1  UNL1        0.0882
     19 H         139.3729  140.1283  171.9316 H       1  UNL1        0.1424
     20 H         141.0354  140.0551  172.3035 H       1  UNL1        0.1424
     21 C         137.9685  138.7966  166.3870 C.3     1  UNL1        0.2525
     22 O         138.7533  140.0408  166.6802 O.3     1  UNL1       -0.4712
     23 O         139.3417  138.5697  163.0165 O.3     1  UNL1       -0.3505
     24 C         138.2440  138.1993  162.0637 C.3     1  UNL1        0.1741
     25 C         142.8528  138.3807  159.1908 C.3     1  UNL1        0.0760
     26 C         143.2895  139.6259  158.4776 C.3     1  UNL1        0.0646
     27 C         142.8691  140.9711  158.9914 C.3     1  UNL1        0.2068
     28 O         143.9059  141.9891  159.3637 O.3     1  UNL1       -0.4754
     29 C         143.9983  142.4833  160.7769 C.ar    1  UNL1        0.1387
     30 C         143.1148  143.6040  161.2388 C.ar    1  UNL1        0.0392
     31 C         143.2071  144.0982  162.6521 C.ar    1  UNL1        0.0327
     32 C         144.1830  143.4716  163.6035 C.ar    1  UNL1        0.1403
     33 F         144.2754  143.9657  165.0167 F       1  UNL1       -0.2042
     34 C         145.0665  142.3508  163.1415 C.ar    1  UNL1        0.0327
     35 C         144.9741  141.8567  161.7282 C.ar    1  UNL1        0.0392
@<TRIPOS>BOND
     1    21    22    1
     2    22    11    1
     3    11    12   ar
     4    12    13   ar
     5    13    14    1
     6    13    15   ar
     7    15    16    1
     8    15    17   ar
     9    17    18   ar
    10    18     7    1
    11     7     8    2
    12     7     9   am
    13     1     9    1
    14     1     2    1
    15     2     3    1
    16     3     4    1
    17     4    25    1
    18    25    26    1
    19    26    27    1
    20    27    28    1
    21    28    29    1
    22    29    30   ar
    23    30    31   ar
    24    31    32   ar
    25    32    33    1
    26    32    34   ar
    27    34    35   ar
    28     4     5    1
    29     5     6    1
    30     6    23    1
    31    23    24    1
    32    18    11   ar
    33     6     1    1
    34    35    29   ar
    35    14    19    1
    36    14    20    1
    37     9    10    1
