@<TRIPOS>MOLECULE
*****
 32 35 0 0 0
SMALL
GASTEIGER

@<TRIPOS>ATOM
      1 N         140.3662  141.5352  163.9177 N.am    1  UNL1       -0.2809
      2 C         139.8207  142.8666  163.4938 C.2     1  UNL1        0.2495
      3 O         138.7136  143.5074  164.2774 O.2     1  UNL1       -0.2698
      4 H         141.0928  141.1146  163.4035 H       1  UNL1        0.1552
      5 C         138.1907  139.4937  163.6019 C.3     1  UNL1        0.0323
      6 C         138.7170  139.8238  164.9672 C.ar    1  UNL1       -0.0087
      7 C         138.1555  139.1333  166.1746 C.ar    1  UNL1       -0.0030
      8 C         138.6818  139.4634  167.5399 C.ar    1  UNL1        0.0024
      9 C         139.7695  140.4841  167.6978 C.ar    1  UNL1        0.0312
     10 C         140.3309  141.1747  166.4904 C.ar    1  UNL1       -0.0058
     11 C         141.4187  142.1955  166.6483 C.3     1  UNL1        0.0324
     12 C         139.8047  140.8445  165.1251 C.ar    1  UNL1        0.0426
     13 C         140.2957  140.8143  169.0631 C.ar    1  UNL1        0.1403
     14 N         141.3392  140.0434  169.8160 N.ar    1  UNL1       -0.2254
     15 C         141.5593  140.7260  171.1335 C.ar    1  UNL1        0.1189
     16 C         140.6518  141.9188  171.1948 C.ar    1  UNL1        0.0945
     17 N         139.8709  141.9733  169.9153 N.ar    1  UNL1       -0.3361
     18 H         139.1976  142.6509  169.6767 H       1  UNL1        0.1674
     19 C         140.3821  143.5572  162.2865 C.ar    1  UNL1        0.0539
     20 C         139.7046  144.7779  161.7378 C.ar    1  UNL1        0.0076
     21 C         140.2661  145.4685  160.5304 C.ar    1  UNL1        0.0371
     22 C         141.5051  144.9385  159.8717 C.ar    1  UNL1        0.1391
     23 C         142.1826  143.7179  160.4203 C.ar    1  UNL1        0.0371
     24 C         141.6212  143.0272  161.6277 C.ar    1  UNL1        0.0076
     25 O         142.0665  145.6291  158.6643 O.3     1  UNL1       -0.4690
     26 C         141.6562  145.1894  157.2902 C.3     1  UNL1        0.2508
     27 C         140.8423  146.1029  156.4222 C.ar    1  UNL1        0.1026
     28 C         141.1778  146.2514  154.9678 C.ar    1  UNL1        0.0185
     29 C         140.3641  147.1648  154.0998 C.ar    1  UNL1        0.0029
     30 C         139.2148  147.9298  154.6863 C.ar    1  UNL1        0.0207
     31 C         138.8794  147.7813  156.1408 C.ar    1  UNL1        0.0986
     32 N         139.6931  146.8679  157.0087 N.ar    1  UNL1       -0.2445
@<TRIPOS>BOND
     1     5     6    1
     2     6     7   ar
     3     7     8   ar
     4     8     9   ar
     5     9    13    1
     6    13    14   ar
     7    14    15   ar
     8    15    16   ar
     9    16    17   ar
    10     9    10   ar
    11    10    11    1
    12    10    12   ar
    13    12     1    1
    14     1     2   am
    15     2     3    2
    16     2    19    1
    17    19    20   ar
    18    20    21   ar
    19    21    22   ar
    20    22    25    1
    21    25    26    1
    22    26    27    1
    23    27    28   ar
    24    28    29   ar
    25    29    30   ar
    26    30    31   ar
    27    31    32   ar
    28    22    23   ar
    29    23    24   ar
    30    12     6   ar
    31    24    19   ar
    32    17    13   ar
    33    32    27   ar
    34    17    18    1
    35     1     4    1
@<TRIPOS>MOLECULE
*****
 32 35 0 0 0
SMALL
GASTEIGER

@<TRIPOS>ATOM
      1 N         139.6610  142.3233  164.0012 N.am    1  UNL1       -0.2809
      2 C         140.7406  142.0266  163.0030 C.2     1  UNL1        0.2495
      3 O         141.5239  140.7511  163.1022 O.2     1  UNL1       -0.2698
      4 H         139.1469  143.1604  163.9360 H       1  UNL1        0.1552
      5 C         137.7448  140.0655  163.5207 C.3     1  UNL1        0.0323
      6 C         138.4066  140.2157  164.8584 C.ar    1  UNL1       -0.0087
      7 C         138.1103  139.2371  165.9558 C.ar    1  UNL1       -0.0030
      8 C         138.7722  139.3873  167.2935 C.ar    1  UNL1        0.0024
      9 C         139.7303  140.5161  167.5338 C.ar    1  UNL1        0.0312
     10 C         140.0265  141.4947  166.4363 C.ar    1  UNL1       -0.0058
     11 C         140.9846  142.6237  166.6765 C.3     1  UNL1        0.0324
     12 C         139.3647  141.3446  165.0986 C.ar    1  UNL1        0.0426
     13 C         140.3921  140.6663  168.8715 C.ar    1  UNL1        0.1403
     14 N         139.8316  141.3971  170.0554 N.ar    1  UNL1       -0.2254
     15 C         140.8237  141.2945  171.1758 C.ar    1  UNL1        0.1189
     16 C         141.9974  140.5003  170.6842 C.ar    1  UNL1        0.0945
     17 N         141.7306  140.1120  169.2601 N.ar    1  UNL1       -0.3361
     18 H         142.3290  139.5858  168.6820 H       1  UNL1        0.1674
     19 C         141.0369  143.0052  161.9055 C.ar    1  UNL1        0.0539
     20 C         142.0222  142.6517  160.8312 C.ar    1  UNL1        0.0076
     21 C         142.3185  143.6304  159.7337 C.ar    1  UNL1        0.0371
     22 C         141.6295  144.9626  159.7106 C.ar    1  UNL1        0.1391
     23 C         140.6442  145.3161  160.7849 C.ar    1  UNL1        0.0371
     24 C         140.3479  144.3375  161.8824 C.ar    1  UNL1        0.0076
     25 O         141.9259  145.9412  158.6132 O.3     1  UNL1       -0.4690
     26 C         141.8415  145.5085  157.1794 C.3     1  UNL1        0.2508
     27 C         140.5171  145.5012  156.4750 C.ar    1  UNL1        0.1026
     28 C         139.7399  144.2242  156.3525 C.ar    1  UNL1        0.0185
     29 C         138.4156  144.2168  155.6481 C.ar    1  UNL1        0.0029
     30 C         137.8687  145.4864  155.0661 C.ar    1  UNL1        0.0207
     31 C         138.6459  146.7635  155.1885 C.ar    1  UNL1        0.0986
     32 N         139.9702  146.7709  155.8929 N.ar    1  UNL1       -0.2445
@<TRIPOS>BOND
     1     5     6    1
     2     6     7   ar
     3     7     8   ar
     4     8     9   ar
     5     9    13    1
     6    13    14   ar
     7    14    15   ar
     8    15    16   ar
     9    16    17   ar
    10     9    10   ar
    11    10    11    1
    12    10    12   ar
    13    12     1    1
    14     1     2   am
    15     2     3    2
    16     2    19    1
    17    19    20   ar
    18    20    21   ar
    19    21    22   ar
    20    22    25    1
    21    25    26    1
    22    26    27    1
    23    27    28   ar
    24    28    29   ar
    25    29    30   ar
    26    30    31   ar
    27    31    32   ar
    28    22    23   ar
    29    23    24   ar
    30    12     6   ar
    31    24    19   ar
    32    17    13   ar
    33    32    27   ar
    34    17    18    1
    35     1     4    1
@<TRIPOS>MOLECULE
*****
 32 35 0 0 0
SMALL
GASTEIGER

@<TRIPOS>ATOM
      1 N         141.7644  143.1534  161.6428 N.am    1  UNL1       -0.2809
      2 C         142.5061  143.7513  162.8015 C.2     1  UNL1        0.2495
      3 O         143.5622  144.7891  162.5609 O.2     1  UNL1       -0.2698
      4 H         141.0713  142.4724  161.8007 H       1  UNL1        0.1552
      5 C         140.3313  145.5045  160.4516 C.3     1  UNL1        0.0323
      6 C         141.3624  144.7688  159.6480 C.ar    1  UNL1       -0.0087
      7 C         141.6769  145.2085  158.2489 C.ar    1  UNL1       -0.0030
      8 C         142.7079  144.4728  157.4453 C.ar    1  UNL1        0.0024
      9 C         143.4244  143.2973  158.0409 C.ar    1  UNL1        0.0312
     10 C         143.1099  142.8576  159.4401 C.ar    1  UNL1       -0.0058
     11 C         143.8265  141.6820  160.0357 C.3     1  UNL1        0.0324
     12 C         142.0789  143.5933  160.2436 C.ar    1  UNL1        0.0426
     13 C         144.4555  142.5616  157.2374 C.ar    1  UNL1        0.1403
     14 N         144.1971  141.4019  156.3218 N.ar    1  UNL1       -0.2254
     15 C         145.5078  140.9800  155.7269 C.ar    1  UNL1        0.1189
     16 C         146.5763  141.8790  156.2747 C.ar    1  UNL1        0.0945
     17 N         145.9259  142.8565  157.2082 N.ar    1  UNL1       -0.3361
     18 H         146.3837  143.5668  157.7132 H       1  UNL1        0.1674
     19 C         142.1917  143.3116  164.2006 C.ar    1  UNL1        0.0539
     20 C         143.2648  142.7049  165.0552 C.ar    1  UNL1        0.0076
     21 C         142.9504  142.2651  166.4544 C.ar    1  UNL1        0.0371
     22 C         141.5628  142.4320  166.9990 C.ar    1  UNL1        0.1391
     23 C         140.4896  143.0387  166.1445 C.ar    1  UNL1        0.0371
     24 C         140.8040  143.4785  164.7454 C.ar    1  UNL1        0.0076
     25 O         141.2484  141.9922  168.3982 O.3     1  UNL1       -0.4690
     26 C         140.8215  140.5787  168.6620 C.3     1  UNL1        0.2508
     27 C         140.0971  139.8036  167.6015 C.ar    1  UNL1        0.1026
     28 C         138.6344  139.5089  167.7553 C.ar    1  UNL1        0.0185
     29 C         137.9100  138.7339  166.6949 C.ar    1  UNL1        0.0029
     30 C         138.6482  138.2536  165.4807 C.ar    1  UNL1        0.0207
     31 C         140.1109  138.5484  165.3269 C.ar    1  UNL1        0.0986
     32 N         140.8354  139.3234  166.3874 N.ar    1  UNL1       -0.2445
@<TRIPOS>BOND
     1     5     6    1
     2     6     7   ar
     3     7     8   ar
     4     8     9   ar
     5     9    13    1
     6    13    14   ar
     7    14    15   ar
     8    15    16   ar
     9    16    17   ar
    10     9    10   ar
    11    10    11    1
    12    10    12   ar
    13    12     1    1
    14     1     2   am
    15     2     3    2
    16     2    19    1
    17    19    20   ar
    18    20    21   ar
    19    21    22   ar
    20    22    25    1
    21    25    26    1
    22    26    27    1
    23    27    28   ar
    24    28    29   ar
    25    29    30   ar
    26    30    31   ar
    27    31    32   ar
    28    22    23   ar
    29    23    24   ar
    30    12     6   ar
    31    24    19   ar
    32    17    13   ar
    33    32    27   ar
    34    17    18    1
    35     1     4    1
@<TRIPOS>MOLECULE
*****
 32 35 0 0 0
SMALL
GASTEIGER

@<TRIPOS>ATOM
      1 N         142.4618  141.8547  163.9196 N.am    1  UNL1       -0.2809
      2 C         141.1846  141.8537  163.1329 C.2     1  UNL1        0.2495
      3 O         140.1335  140.8202  163.4107 O.2     1  UNL1       -0.2698
      4 H         143.1517  142.5330  163.7373 H       1  UNL1        0.1552
      5 C         144.0301  139.3747  163.2950 C.3     1  UNL1        0.0323
      6 C         143.4719  139.5823  164.6718 C.ar    1  UNL1       -0.0087
      7 C         143.6979  138.5499  165.7362 C.ar    1  UNL1       -0.0030
      8 C         143.1397  138.7575  167.1129 C.ar    1  UNL1        0.0024
      9 C         142.3556  139.9974  167.4252 C.ar    1  UNL1        0.0312
     10 C         142.1296  141.0298  166.3608 C.ar    1  UNL1       -0.0058
     11 C         141.3455  142.2699  166.6731 C.3     1  UNL1        0.0324
     12 C         142.6878  140.8222  164.9841 C.ar    1  UNL1        0.0426
     13 C         141.7974  140.2050  168.8019 C.ar    1  UNL1        0.1403
     14 N         142.5376  140.7714  169.9773 N.ar    1  UNL1       -0.2254
     15 C         141.5987  140.7991  171.1468 C.ar    1  UNL1        0.1189
     16 C         140.2783  140.2498  170.6943 C.ar    1  UNL1        0.0945
     17 N         140.4011  139.8826  169.2451 N.ar    1  UNL1       -0.3361
     18 H         139.6901  139.4977  168.6834 H       1  UNL1        0.1674
     19 C         140.9586  142.8861  162.0685 C.ar    1  UNL1        0.0539
     20 C         140.2484  144.1645  162.4023 C.ar    1  UNL1        0.0076
     21 C         140.0224  145.1969  161.3378 C.ar    1  UNL1        0.0371
     22 C         140.5066  144.9509  159.9396 C.ar    1  UNL1        0.1391
     23 C         141.2168  143.6726  159.6058 C.ar    1  UNL1        0.0371
     24 C         141.4428  142.6402  160.6702 C.ar    1  UNL1        0.0076
     25 O         140.2805  145.9834  158.8752 O.3     1  UNL1       -0.4690
     26 C         139.9751  145.5572  157.4698 C.3     1  UNL1        0.2508
     27 C         139.8503  146.5854  156.3847 C.ar    1  UNL1        0.1026
     28 C         140.6008  146.4121  155.0975 C.ar    1  UNL1        0.0185
     29 C         140.4760  147.4402  154.0124 C.ar    1  UNL1        0.0029
     30 C         139.6009  148.6415  154.2145 C.ar    1  UNL1        0.0207
     31 C         138.8504  148.8147  155.5017 C.ar    1  UNL1        0.0986
     32 N         138.9752  147.7867  156.5868 N.ar    1  UNL1       -0.2445
@<TRIPOS>BOND
     1     5     6    1
     2     6     7   ar
     3     7     8   ar
     4     8     9   ar
     5     9    13    1
     6    13    14   ar
     7    14    15   ar
     8    15    16   ar
     9    16    17   ar
    10     9    10   ar
    11    10    11    1
    12    10    12   ar
    13    12     1    1
    14     1     2   am
    15     2     3    2
    16     2    19    1
    17    19    20   ar
    18    20    21   ar
    19    21    22   ar
    20    22    25    1
    21    25    26    1
    22    26    27    1
    23    27    28   ar
    24    28    29   ar
    25    29    30   ar
    26    30    31   ar
    27    31    32   ar
    28    22    23   ar
    29    23    24   ar
    30    12     6   ar
    31    24    19   ar
    32    17    13   ar
    33    32    27   ar
    34    17    18    1
    35     1     4    1
@<TRIPOS>MOLECULE
*****
 32 35 0 0 0
SMALL
GASTEIGER

@<TRIPOS>ATOM
      1 N         141.3658  139.4109  163.9236 N.am    1  UNL1       -0.2809
      2 C         141.0718  140.3070  162.7572 C.2     1  UNL1        0.2495
      3 O         139.9385  141.2870  162.8312 O.2     1  UNL1       -0.2698
      4 H         142.1096  138.7677  163.8751 H       1  UNL1        0.1552
      5 C         138.8478  137.7950  164.1435 C.3     1  UNL1        0.0323
      6 C         139.2676  138.6869  165.2740 C.ar    1  UNL1       -0.0087
      7 C         138.4285  138.7710  166.5145 C.ar    1  UNL1       -0.0030
      8 C         138.8483  139.6629  167.6450 C.ar    1  UNL1        0.0024
      9 C         140.1072  140.4709  167.5351 C.ar    1  UNL1        0.0312
     10 C         140.9464  140.3869  166.2947 C.ar    1  UNL1       -0.0058
     11 C         142.2055  141.1949  166.1847 C.3     1  UNL1        0.0324
     12 C         140.5266  139.4949  165.1641 C.ar    1  UNL1        0.0426
     13 C         140.5271  141.3629  168.6656 C.ar    1  UNL1        0.1403
     14 N         140.3829  142.8552  168.7116 N.ar    1  UNL1       -0.2254
     15 C         140.9315  143.3338  170.0231 C.ar    1  UNL1        0.1189
     16 C         141.4148  142.1372  170.7877 C.ar    1  UNL1        0.0945
     17 N         141.1648  140.9192  169.9488 N.ar    1  UNL1       -0.3361
     18 H         141.3814  139.9913  170.1967 H       1  UNL1        0.1674
     19 C         141.9109  140.2230  161.5167 C.ar    1  UNL1        0.0539
     20 C         141.8213  141.2998  160.4763 C.ar    1  UNL1        0.0076
     21 C         142.6605  141.2158  159.2358 C.ar    1  UNL1        0.0371
     22 C         143.5893  140.0551  159.0358 C.ar    1  UNL1        0.1391
     23 C         143.6790  138.9783  160.0763 C.ar    1  UNL1        0.0371
     24 C         142.8398  139.0623  161.3167 C.ar    1  UNL1        0.0076
     25 O         144.4285  139.9712  157.7954 O.3     1  UNL1       -0.4690
     26 C         143.8013  139.5779  156.4908 C.3     1  UNL1        0.2508
     27 C         143.3843  138.1560  156.2575 C.ar    1  UNL1        0.1026
     28 C         141.9818  137.7249  156.5696 C.ar    1  UNL1        0.0185
     29 C         141.5648  136.3031  156.3364 C.ar    1  UNL1        0.0029
     30 C         142.5502  135.3123  155.7912 C.ar    1  UNL1        0.0207
     31 C         143.9526  135.7434  155.4791 C.ar    1  UNL1        0.0986
     32 N         144.3697  137.1652  155.7123 N.ar    1  UNL1       -0.2445
@<TRIPOS>BOND
     1     5     6    1
     2     6     7   ar
     3     7     8   ar
     4     8     9   ar
     5     9    13    1
     6    13    14   ar
     7    14    15   ar
     8    15    16   ar
     9    16    17   ar
    10     9    10   ar
    11    10    11    1
    12    10    12   ar
    13    12     1    1
    14     1     2   am
    15     2     3    2
    16     2    19    1
    17    19    20   ar
    18    20    21   ar
    19    21    22   ar
    20    22    25    1
    21    25    26    1
    22    26    27    1
    23    27    28   ar
    24    28    29   ar
    25    29    30   ar
    26    30    31   ar
    27    31    32   ar
    28    22    23   ar
    29    23    24   ar
    30    12     6   ar
    31    24    19   ar
    32    17    13   ar
    33    32    27   ar
    34    17    18    1
    35     1     4    1
@<TRIPOS>MOLECULE
*****
 32 35 0 0 0
SMALL
GASTEIGER

@<TRIPOS>ATOM
      1 N         141.2000  138.7808  164.0626 N.am    1  UNL1       -0.2809
      2 C         140.7886  139.4880  162.8053 C.2     1  UNL1        0.2495
      3 O         139.7479  140.5670  162.8580 O.2     1  UNL1       -0.2698
      4 H         141.8830  138.0726  164.0281 H       1  UNL1        0.1552
      5 C         138.4913  137.7111  164.7828 C.3     1  UNL1        0.0323
      6 C         139.2163  138.6179  165.7326 C.ar    1  UNL1       -0.0087
      7 C         138.5871  138.9898  167.0424 C.ar    1  UNL1       -0.0030
      8 C         139.3121  139.8966  167.9921 C.ar    1  UNL1        0.0024
      9 C         140.6664  140.4314  167.6321 C.ar    1  UNL1        0.0312
     10 C         141.2957  140.0595  166.3222 C.ar    1  UNL1       -0.0058
     11 C         142.6501  140.5944  165.9621 C.3     1  UNL1        0.0324
     12 C         140.5707  139.1527  165.3725 C.ar    1  UNL1        0.0426
     13 C         141.3915  141.3382  168.5818 C.ar    1  UNL1        0.1403
     14 N         140.9651  142.7199  168.9807 N.ar    1  UNL1       -0.2254
     15 C         141.9803  143.2582  169.9448 C.ar    1  UNL1        0.1189
     16 C         143.0342  142.2092  170.1419 C.ar    1  UNL1        0.0945
     17 N         142.6703  141.0226  169.2995 N.ar    1  UNL1       -0.3361
     18 H         143.1811  140.1839  169.2298 H       1  UNL1        0.1674
     19 C         141.4179  139.1161  161.4955 C.ar    1  UNL1        0.0539
     20 C         141.1691  139.9569  160.2784 C.ar    1  UNL1        0.0076
     21 C         141.7985  139.5850  158.9686 C.ar    1  UNL1        0.0371
     22 C         142.6765  138.3724  158.8758 C.ar    1  UNL1        0.1391
     23 C         142.9252  137.5317  160.0929 C.ar    1  UNL1        0.0371
     24 C         142.2960  137.9035  161.4027 C.ar    1  UNL1        0.0076
     25 O         143.3058  138.0006  157.5660 O.3     1  UNL1       -0.4690
     26 C         142.4817  137.3464  156.4969 C.3     1  UNL1        0.2508
     27 C         142.4405  135.8506  156.3916 C.ar    1  UNL1        0.1026
     28 C         143.3231  135.0125  157.2683 C.ar    1  UNL1        0.0185
     29 C         143.2820  133.5168  157.1630 C.ar    1  UNL1        0.0029
     30 C         142.3582  132.8592  156.1811 C.ar    1  UNL1        0.0207
     31 C         141.4756  133.6973  155.3044 C.ar    1  UNL1        0.0986
     32 N         141.5168  135.1930  155.4097 N.ar    1  UNL1       -0.2445
@<TRIPOS>BOND
     1     5     6    1
     2     6     7   ar
     3     7     8   ar
     4     8     9   ar
     5     9    13    1
     6    13    14   ar
     7    14    15   ar
     8    15    16   ar
     9    16    17   ar
    10     9    10   ar
    11    10    11    1
    12    10    12   ar
    13    12     1    1
    14     1     2   am
    15     2     3    2
    16     2    19    1
    17    19    20   ar
    18    20    21   ar
    19    21    22   ar
    20    22    25    1
    21    25    26    1
    22    26    27    1
    23    27    28   ar
    24    28    29   ar
    25    29    30   ar
    26    30    31   ar
    27    31    32   ar
    28    22    23   ar
    29    23    24   ar
    30    12     6   ar
    31    24    19   ar
    32    17    13   ar
    33    32    27   ar
    34    17    18    1
    35     1     4    1
@<TRIPOS>MOLECULE
*****
 32 35 0 0 0
SMALL
GASTEIGER

@<TRIPOS>ATOM
      1 N         140.7217  139.9788  163.7413 N.am    1  UNL1       -0.2809
      2 C         141.8998  139.1422  163.3386 C.2     1  UNL1        0.2495
      3 O         142.5799  138.2682  164.3504 O.2     1  UNL1       -0.2698
      4 H         140.2753  140.5524  163.0772 H       1  UNL1        0.1552
      5 C         138.6311  137.9823  164.5432 C.3     1  UNL1        0.0323
      6 C         139.1784  138.9432  165.5567 C.ar    1  UNL1       -0.0087
      7 C         138.6804  138.9058  166.9711 C.ar    1  UNL1       -0.0030
      8 C         139.2278  139.8667  167.9846 C.ar    1  UNL1        0.0024
      9 C         140.2731  140.8650  167.5836 C.ar    1  UNL1        0.0312
     10 C         140.7710  140.9023  166.1692 C.ar    1  UNL1       -0.0058
     11 C         141.8164  141.9006  165.7682 C.3     1  UNL1        0.0324
     12 C         140.2237  139.9414  165.1558 C.ar    1  UNL1        0.0426
     13 C         140.8204  141.8259  168.5971 C.ar    1  UNL1        0.1403
     14 N         141.9931  141.5819  169.5000 N.ar    1  UNL1       -0.2254
     15 C         142.1886  142.8047  170.3466 C.ar    1  UNL1        0.1189
     16 C         141.1367  143.8044  169.9668 C.ar    1  UNL1        0.0945
     17 N         140.2912  143.1994  168.8856 N.ar    1  UNL1       -0.3361
     18 H         139.5236  143.6286  168.4430 H       1  UNL1        0.1674
     19 C         142.3979  139.1796  161.9242 C.ar    1  UNL1        0.0539
     20 C         143.0741  140.4114  161.3995 C.ar    1  UNL1        0.0076
     21 C         143.5721  140.4487  159.9850 C.ar    1  UNL1        0.0371
     22 C         143.3939  139.2542  159.0954 C.ar    1  UNL1        0.1391
     23 C         142.7177  138.0224  159.6201 C.ar    1  UNL1        0.0371
     24 C         142.2197  137.9851  161.0345 C.ar    1  UNL1        0.0076
     25 O         143.8920  139.2916  157.6810 O.3     1  UNL1       -0.4690
     26 C         143.9721  140.5980  156.9484 C.3     1  UNL1        0.2508
     27 C         145.3091  141.2056  156.6425 C.ar    1  UNL1        0.1026
     28 C         145.8569  142.2929  157.5187 C.ar    1  UNL1        0.0185
     29 C         147.1938  142.9005  157.2129 C.ar    1  UNL1        0.0029
     30 C         147.9829  142.4207  156.0309 C.ar    1  UNL1        0.0207
     31 C         147.4351  141.3333  155.1547 C.ar    1  UNL1        0.0986
     32 N         146.0982  140.7258  155.4605 N.ar    1  UNL1       -0.2445
@<TRIPOS>BOND
     1     5     6    1
     2     6     7   ar
     3     7     8   ar
     4     8     9   ar
     5     9    13    1
     6    13    14   ar
     7    14    15   ar
     8    15    16   ar
     9    16    17   ar
    10     9    10   ar
    11    10    11    1
    12    10    12   ar
    13    12     1    1
    14     1     2   am
    15     2     3    2
    16     2    19    1
    17    19    20   ar
    18    20    21   ar
    19    21    22   ar
    20    22    25    1
    21    25    26    1
    22    26    27    1
    23    27    28   ar
    24    28    29   ar
    25    29    30   ar
    26    30    31   ar
    27    31    32   ar
    28    22    23   ar
    29    23    24   ar
    30    12     6   ar
    31    24    19   ar
    32    17    13   ar
    33    32    27   ar
    34    17    18    1
    35     1     4    1
@<TRIPOS>MOLECULE
*****
 32 35 0 0 0
SMALL
GASTEIGER

@<TRIPOS>ATOM
      1 N         140.9494  141.1284  163.8387 N.am    1  UNL1       -0.2809
      2 C         142.1852  140.4465  163.3310 C.2     1  UNL1        0.2495
      3 O         142.6959  139.2129  164.0149 O.2     1  UNL1       -0.2698
      4 H         140.6142  141.9380  163.3899 H       1  UNL1        0.1552
      5 C         138.6291  139.2663  163.4526 C.3     1  UNL1        0.0323
      6 C         139.0640  139.6456  164.8372 C.ar    1  UNL1       -0.0087
      7 C         138.3388  139.0938  166.0286 C.ar    1  UNL1       -0.0030
      8 C         138.7738  139.4731  167.4132 C.ar    1  UNL1        0.0024
      9 C         139.9339  140.4041  167.6063 C.ar    1  UNL1        0.0312
     10 C         140.6590  140.9559  166.4148 C.ar    1  UNL1       -0.0058
     11 C         141.8192  141.8869  166.6078 C.3     1  UNL1        0.0324
     12 C         140.2241  140.5766  165.0302 C.ar    1  UNL1        0.0426
     13 C         140.3688  140.7834  168.9908 C.ar    1  UNL1        0.1403
     14 N         141.4088  140.0805  169.8119 N.ar    1  UNL1       -0.2254
     15 C         141.5229  140.7949  171.1259 C.ar    1  UNL1        0.1189
     16 C         140.5533  141.9393  171.1170 C.ar    1  UNL1        0.0945
     17 N         139.8400  141.9322  169.7974 N.ar    1  UNL1       -0.3361
     18 H         139.1466  142.5697  169.5110 H       1  UNL1        0.1674
     19 C         142.9105  140.9982  162.1396 C.ar    1  UNL1        0.0539
     20 C         142.8418  140.2835  160.8226 C.ar    1  UNL1        0.0076
     21 C         143.5671  140.8353  159.6311 C.ar    1  UNL1        0.0371
     22 C         144.3611  142.1017  159.7567 C.ar    1  UNL1        0.1391
     23 C         144.4297  142.8165  161.0737 C.ar    1  UNL1        0.0371
     24 C         143.7045  142.2647  162.2651 C.ar    1  UNL1        0.0076
     25 O         145.0863  142.6534  158.5652 O.3     1  UNL1       -0.4690
     26 C         144.6875  142.2306  157.1824 C.3     1  UNL1        0.2508
     27 C         145.7310  142.0712  156.1167 C.ar    1  UNL1        0.1026
     28 C         147.1740  142.3290  156.4353 C.ar    1  UNL1        0.0185
     29 C         148.2175  142.1697  155.3697 C.ar    1  UNL1        0.0029
     30 C         147.8180  141.7525  153.9854 C.ar    1  UNL1        0.0207
     31 C         146.3751  141.4947  153.6667 C.ar    1  UNL1        0.0986
     32 N         145.3316  141.6540  154.7324 N.ar    1  UNL1       -0.2445
@<TRIPOS>BOND
     1     5     6    1
     2     6     7   ar
     3     7     8   ar
     4     8     9   ar
     5     9    13    1
     6    13    14   ar
     7    14    15   ar
     8    15    16   ar
     9    16    17   ar
    10     9    10   ar
    11    10    11    1
    12    10    12   ar
    13    12     1    1
    14     1     2   am
    15     2     3    2
    16     2    19    1
    17    19    20   ar
    18    20    21   ar
    19    21    22   ar
    20    22    25    1
    21    25    26    1
    22    26    27    1
    23    27    28   ar
    24    28    29   ar
    25    29    30   ar
    26    30    31   ar
    27    31    32   ar
    28    22    23   ar
    29    23    24   ar
    30    12     6   ar
    31    24    19   ar
    32    17    13   ar
    33    32    27   ar
    34    17    18    1
    35     1     4    1
@<TRIPOS>MOLECULE
*****
 32 35 0 0 0
SMALL
GASTEIGER

@<TRIPOS>ATOM
      1 N         141.2969  140.9548  162.9030 N.am    1  UNL1       -0.2809
      2 C         140.3107  140.0300  162.2532 C.2     1  UNL1        0.2495
      3 O         139.0007  139.7394  162.9237 O.2     1  UNL1       -0.2698
      4 H         142.1567  141.1455  162.4629 H       1  UNL1        0.1552
      5 C         139.8334  143.5721  162.9912 C.3     1  UNL1        0.0323
      6 C         140.2414  142.8976  164.2674 C.ar    1  UNL1       -0.0087
      7 C         139.9176  143.5317  165.5876 C.ar    1  UNL1       -0.0030
      8 C         140.3256  142.8571  166.8637 C.ar    1  UNL1        0.0024
      9 C         141.0573  141.5485  166.8197 C.ar    1  UNL1        0.0312
     10 C         141.3811  140.9144  165.4994 C.ar    1  UNL1       -0.0058
     11 C         142.1129  139.6057  165.4553 C.3     1  UNL1        0.0324
     12 C         140.9731  141.5889  164.2233 C.ar    1  UNL1        0.0426
     13 C         141.4653  140.8740  168.0958 C.ar    1  UNL1        0.1403
     14 N         140.6036  139.9759  168.9330 N.ar    1  UNL1       -0.2254
     15 C         141.4123  139.5259  170.1134 C.ar    1  UNL1        0.1189
     16 C         142.7740  140.1459  170.0058 C.ar    1  UNL1        0.0945
     17 N         142.8067  140.9790  168.7589 N.ar    1  UNL1       -0.3361
     18 H         143.5739  141.5028  168.4329 H       1  UNL1        0.1674
     19 C         140.6344  139.3959  160.9330 C.ar    1  UNL1        0.0539
     20 C         142.0074  138.8467  160.6813 C.ar    1  UNL1        0.0076
     21 C         142.3311  138.2126  159.3610 C.ar    1  UNL1        0.0371
     22 C         141.2818  138.1275  158.2925 C.ar    1  UNL1        0.1391
     23 C         139.9089  138.6766  158.5442 C.ar    1  UNL1        0.0371
     24 C         139.5851  139.3108  159.8644 C.ar    1  UNL1        0.0076
     25 O         141.6056  137.4934  156.9723 O.3     1  UNL1       -0.4690
     26 C         142.8033  136.5997  156.8432 C.3     1  UNL1        0.2508
     27 C         142.6210  135.1360  156.5702 C.ar    1  UNL1        0.1026
     28 C         143.4227  134.1249  157.3351 C.ar    1  UNL1        0.0185
     29 C         143.2405  132.6613  157.0622 C.ar    1  UNL1        0.0029
     30 C         142.2565  132.2087  156.0244 C.ar    1  UNL1        0.0207
     31 C         141.4548  133.2198  155.2596 C.ar    1  UNL1        0.0986
     32 N         141.6371  134.6834  155.5325 N.ar    1  UNL1       -0.2445
@<TRIPOS>BOND
     1     5     6    1
     2     6     7   ar
     3     7     8   ar
     4     8     9   ar
     5     9    13    1
     6    13    14   ar
     7    14    15   ar
     8    15    16   ar
     9    16    17   ar
    10     9    10   ar
    11    10    11    1
    12    10    12   ar
    13    12     1    1
    14     1     2   am
    15     2     3    2
    16     2    19    1
    17    19    20   ar
    18    20    21   ar
    19    21    22   ar
    20    22    25    1
    21    25    26    1
    22    26    27    1
    23    27    28   ar
    24    28    29   ar
    25    29    30   ar
    26    30    31   ar
    27    31    32   ar
    28    22    23   ar
    29    23    24   ar
    30    12     6   ar
    31    24    19   ar
    32    17    13   ar
    33    32    27   ar
    34    17    18    1
    35     1     4    1
